GEN
  -OEChem-07012216493D

 30 32  0     0  0  0  0  0  0999 V2000
   -1.3360    0.1820   -3.4360 C   0  0  0  0  0  0  0  0  0  0  0  0
   -0.3110    0.2130   -4.3680 C   0  0  0  0  0  0  0  0  0  0  0  0
   -0.6010    0.4090   -5.6790 O   0  0  0  0  0  0  0  0  0  0  0  0
    1.0120    0.0470   -3.9730 C   0  0  0  0  0  0  0  0  0  0  0  0
    1.3200   -0.1480   -2.6400 C   0  0  0  0  0  0  0  0  0  0  0  0
    2.6100   -0.3120   -2.2520 O   0  0  0  0  0  0  0  0  0  0  0  0
    0.2890   -0.1760   -1.6930 C   0  0  0  0  0  0  0  0  0  0  0  0
    0.5650   -0.3620   -0.2600 C   0  0  0  0  0  0  0  0  0  0  0  0
    1.6600   -0.7160    0.1430 O   0  0  0  0  0  0  0  0  0  0  0  0
   -0.5560   -0.1020    0.6620 C   0  0  0  0  0  0  0  0  0  0  0  0
   -1.8010    0.0430    0.1390 C   0  0  0  0  0  0  0  0  0  0  0  0
   -2.0350   -0.0560   -1.1740 O   0  0  0  0  0  0  0  0  0  0  0  0
   -1.0490   -0.0150   -2.0940 C   0  0  0  0  0  0  0  0  0  0  0  0
   -0.3280    0.0020    2.1240 C   0  0  0  0  0  0  0  0  0  0  0  0
   -0.9720   -0.8740    2.9960 C   0  0  0  0  0  0  0  0  0  0  0  0
   -0.7580   -0.7740    4.3550 C   0  0  0  0  0  0  0  0  0  0  0  0
    0.0970    0.1970    4.8540 C   0  0  0  0  0  0  0  0  0  0  0  0
    0.3050    0.2930    6.1940 O   0  0  0  0  0  0  0  0  0  0  0  0
    0.7350    1.0750    3.9890 C   0  0  0  0  0  0  0  0  0  0  0  0
    0.5290    0.9770    2.6290 C   0  0  0  0  0  0  0  0  0  0  0  0
   -2.3600    0.3110   -3.7560 H   0  0  0  0  0  0  0  0  0  0  0  0
   -0.5810    1.3640   -5.8300 H   0  0  0  0  0  0  0  0  0  0  0  0
    1.8010    0.0710   -4.7110 H   0  0  0  0  0  0  0  0  0  0  0  0
    2.9570    0.5680   -2.0560 H   0  0  0  0  0  0  0  0  0  0  0  0
   -2.6280    0.2460    0.8030 H   0  0  0  0  0  0  0  0  0  0  0  0
   -1.6370   -1.6310    2.6070 H   0  0  0  0  0  0  0  0  0  0  0  0
   -1.2570   -1.4530    5.0310 H   0  0  0  0  0  0  0  0  0  0  0  0
    1.0580   -0.2760    6.4010 H   0  0  0  0  0  0  0  0  0  0  0  0
    1.4000    1.8310    4.3810 H   0  0  0  0  0  0  0  0  0  0  0  0
    1.0300    1.6580    1.9560 H   0  0  0  0  0  0  0  0  0  0  0  0
  1  2  2  0  0  0  0
  1 13  1  0  0  0  0
  1 21  1  0  0  0  0
  2  3  1  0  0  0  0
  2  4  1  0  0  0  0
  3 22  1  0  0  0  0
  4  5  2  0  0  0  0
  4 23  1  0  0  0  0
  5  6  1  0  0  0  0
  5  7  1  0  0  0  0
  6 24  1  0  0  0  0
  7  8  1  0  0  0  0
  7 13  2  0  0  0  0
  8  9  2  0  0  0  0
  8 10  1  0  0  0  0
 10 11  2  0  0  0  0
 10 14  1  0  0  0  0
 11 12  1  0  0  0  0
 11 25  1  0  0  0  0
 12 13  1  0  0  0  0
 14 15  2  0  0  0  0
 14 20  1  0  0  0  0
 15 16  1  0  0  0  0
 15 26  1  0  0  0  0
 16 17  2  0  0  0  0
 16 27  1  0  0  0  0
 17 18  1  0  0  0  0
 17 19  1  0  0  0  0
 18 28  1  0  0  0  0
 19 20  2  0  0  0  0
 19 29  1  0  0  0  0
 20 30  1  0  0  0  0
M  END
> <OPENEYE_ISO_SMILES>
c1cc(ccc1c2coc3cc(cc(c3c2=O)O)O)O

> <OPENEYE_INCHI>
InChI=1S/C15H10O5/c16-9-3-1-8(2-4-9)11-7-20-13-6-10(17)5-12(18)14(13)15(11)19/h1-7,16-18H

> <OPENEYE_INCHIKEY>
TZBJGXHYKVUXJN-UHFFFAOYSA-N

> <FORMULA>
C15H10O5

$$$$

