REMARK  Name = GEN
REMARK  4 active torsions:
REMARK  status: ('A' for Active; 'I' for Inactive)
REMARK    1  A    between atoms: C_2  and  O_3
REMARK    2  A    between atoms: C_5  and  O_6
REMARK    3  A    between atoms: C_10  and  C_14
REMARK    4  A    between atoms: C_17  and  O_18
REMARK                            x       y       z     vdW  Elec       q    Type
REMARK                         _______ _______ _______ _____ _____    ______ ____
ROOT
ATOM      1  C   UNL     1      -1.336   0.182  -3.436  0.00  0.00    +0.092 A 
ATOM      2  C   UNL     1      -1.049  -0.015  -2.094  0.00  0.00    +0.145 A 
ATOM      3  O   UNL     1      -2.035  -0.056  -1.174  0.00  0.00    -0.462 OA
ATOM      4  C   UNL     1      -1.801   0.043   0.139  0.00  0.00    +0.208 A 
ATOM      5  C   UNL     1      -0.556  -0.102   0.662  0.00  0.00    +0.064 A 
ATOM      6  C   UNL     1       0.565  -0.362  -0.260  0.00  0.00    +0.204 A 
ATOM      7  O   UNL     1       1.660  -0.716   0.143  0.00  0.00    -0.286 OA
ATOM      8  C   UNL     1       0.289  -0.176  -1.693  0.00  0.00    +0.106 A 
ATOM      9  C   UNL     1       1.320  -0.148  -2.640  0.00  0.00    +0.135 A 
ATOM     10  C   UNL     1       1.012   0.047  -3.973  0.00  0.00    +0.091 A 
ATOM     11  C   UNL     1      -0.311   0.213  -4.368  0.00  0.00    +0.124 A 
ENDROOT
BRANCH   5  12
ATOM     12  C   UNL     1      -0.328   0.002   2.124  0.00  0.00    -0.011 A 
ATOM     13  C   UNL     1       0.529   0.977   2.629  0.00  0.00    +0.012 A 
ATOM     14  C   UNL     1       0.735   1.075   3.989  0.00  0.00    +0.046 A 
ATOM     15  C   UNL     1       0.097   0.197   4.854  0.00  0.00    +0.117 A 
ATOM     16  C   UNL     1      -0.758  -0.774   4.355  0.00  0.00    +0.046 A 
ATOM     17  C   UNL     1      -0.972  -0.874   2.996  0.00  0.00    +0.012 A 
BRANCH  15  18
ATOM     18  O   UNL     1       0.305   0.293   6.194  0.00  0.00    -0.507 OA
ATOM     19  H   UNL     1       1.058  -0.276   6.401  0.00  0.00    +0.292 HD
ENDBRANCH  15  18
ENDBRANCH   5  12
BRANCH   9  20
ATOM     20  O   UNL     1       2.610  -0.312  -2.252  0.00  0.00    -0.506 OA
ATOM     21  H   UNL     1       2.957   0.568  -2.056  0.00  0.00    +0.292 HD
ENDBRANCH   9  20
BRANCH  11  22
ATOM     22  O   UNL     1      -0.601   0.409  -5.679  0.00  0.00    -0.507 OA
ATOM     23  H   UNL     1      -0.581   1.364  -5.830  0.00  0.00    +0.292 HD
ENDBRANCH  11  22
TORSDOF 4
