@<TRIPOS>MOLECULE
lig.pdb
 92 93 0 0 0
SMALL
GASTEIGER
Energy = 0

@<TRIPOS>ATOM
      1  C14       17.6700   33.5540   11.0300 C.ar  100  LIG100     -0.0455
      2  C15       18.4170   34.3950   11.8290 C.ar  100  LIG100     -0.0585
      3  C16       18.3550   35.7580   11.6520 C.ar  100  LIG100     -0.0615
      4  C17       17.5260   36.3000   10.6980 C.ar  100  LIG100     -0.0617
      5  C18       16.7880   35.4650    9.8910 C.ar  100  LIG100     -0.0615
      6  C19       16.8830   34.1010   10.0430 C.ar  100  LIG100     -0.0585
      7  C1        18.5350   37.2030   14.9850 C.3   100  LIG100      0.0122
      8  H         19.5750   37.5170   15.1110 H     100  LIG100      0.0322
      9  H1        17.8870   37.8380   15.5900 H     100  LIG100      0.0322
     10  H2        18.2530   37.3020   13.9350 H     100  LIG100      0.0322
     11  C2        18.3930   35.7760   15.4330 C.cat 100  LIG100      0.2105
     12  O3        19.2950   35.1600   15.9470 O.2   100  LIG100     -0.2761
     13  N4        17.1210   35.2840   15.2250 N.am  100  LIG100     -0.3040
     14  H3        16.4210   35.9130   14.8310 H     100  LIG100      0.1494
     15  C5        16.7680   33.8680   15.4780 C.3   100  LIG100      0.1016
     16  H4        17.6910   33.3450   15.7440 H     100  LIG100      0.0597
     17  C6        15.7870   33.6850   16.6680 C.3   100  LIG100     -0.0197
     18  H5        14.8710   34.2430   16.4490 H     100  LIG100      0.0318
     19  C7        15.4010   32.2150   16.9030 C.3   100  LIG100     -0.0605
     20  H6        16.2740   31.6030   17.1420 H     100  LIG100      0.0233
     21  H7        14.9280   31.7830   16.0160 H     100  LIG100      0.0233
     22  H8        14.6890   32.1200   17.7270 H     100  LIG100      0.0233
     23  C8        16.3850   34.2270   17.9690 C.3   100  LIG100     -0.0605
     24  H9        16.6390   35.2850   17.8690 H     100  LIG100      0.0233
     25  H10       17.2960   33.6910   18.2500 H     100  LIG100      0.0233
     26  H11       15.6730   34.1360   18.7910 H     100  LIG100      0.0233
     27  C9        16.2280   33.2270   14.1650 C.cat 100  LIG100      0.2339
     28  O10       15.1370   33.4410   13.6940 O.2   100  LIG100     -0.2738
     29  N11       17.1580   32.3640   13.6010 N.am  100  LIG100     -0.3081
     30  H12       18.0890   32.2960   14.0020 H     100  LIG100      0.1491
     31  C12       16.8860   31.5610   12.4070 C.3   100  LIG100      0.0543
     32  H13       15.8240   31.6800   12.1430 H     100  LIG100      0.0527
     33  C13       17.7300   32.0660   11.2220 C.3   100  LIG100     -0.0067
     34  H14       18.7840   31.7970   11.3440 H     100  LIG100      0.0332
     35  H15       17.3900   31.5810   10.3010 H     100  LIG100      0.0332
     36  H16       19.0570   33.9840   12.6030 H     100  LIG100      0.0620
     37  H17       18.9810   36.4020   12.2550 H     100  LIG100      0.0618
     38  H18       17.4720   37.3750   10.5660 H     100  LIG100      0.0618
     39  H19       16.1420   35.8740    9.1250 H     100  LIG100      0.0618
     40  H20       16.3440   33.4550    9.3690 H     100  LIG100      0.0620
     41  C20       17.2010   30.0620   12.6680 C.3   100  LIG100      0.0880
     42  H21       17.1620   29.5340   11.7110 H     100  LIG100      0.0625
     43  O21       18.5300   29.8320   13.1670 O.3   100  LIG100     -0.3886
     44  H22       18.4700   29.3090   14.0150 H     100  LIG100      0.2099
     45  C22       16.2270   29.3630   13.5980 C.3   100  LIG100      0.0445
     46  H23       16.1620   29.9520   14.5210 H     100  LIG100      0.0469
     47  H24       16.6590   28.3920   13.8670 H     100  LIG100      0.0469
     48  N23       14.8740   29.1640   13.0540 N.3   100  LIG100     -0.2242
     49  C24       14.1090   28.4390   14.0920 C.3   100  LIG100      0.0196
     50  H25       14.2040   28.9870   15.0380 H     100  LIG100      0.0446
     51  H26       14.5510   27.4470   14.2620 H     100  LIG100      0.0446
     52  C25       12.6340   28.3330   13.7100 C.3   100  LIG100     -0.0267
     53  H27       12.4540   28.9370   12.8140 H     100  LIG100      0.0314
     54  C26       11.7260   28.9330   14.7960 C.3   100  LIG100     -0.0490
     55  H28       11.9760   29.9870   14.9470 H     100  LIG100      0.0268
     56  H29       11.8870   28.4240   15.7520 H     100  LIG100      0.0268
     57  C27       10.2600   28.8140   14.3820 C.3   100  LIG100     -0.0528
     58  H30       10.0890   29.4240   13.4980 H     100  LIG100      0.0265
     59  H31        9.6420   29.2260   15.1650 H     100  LIG100      0.0265
     60  C28        9.8630   27.3680   14.0560 C.3   100  LIG100     -0.0530
     61  H32        8.8180   27.3230   13.7430 H     100  LIG100      0.0265
     62  H33        9.9600   26.7870   14.9720 H     100  LIG100      0.0265
     63  C29       10.7720   26.7500   12.9780 C.3   100  LIG100     -0.0528
     64  H34       10.5970   27.2650   12.0280 H     100  LIG100      0.0265
     65  H35       10.5160   25.6990   12.8280 H     100  LIG100      0.0265
     66  C30       12.2570   26.8760   13.3420 C.3   100  LIG100     -0.0490
     67  H36       12.4740   26.2200   14.1910 H     100  LIG100      0.0268
     68  H37       12.8680   26.5210   12.5060 H     100  LIG100      0.0268
     69  N31       14.8630   28.4730   11.7960 N.am  100  LIG100     -0.2466
     70  H38       15.1880   27.5040   11.7630 H     100  LIG100      0.1692
     71  C32       14.2460   29.0560   10.6800 C.cat 100  LIG100      0.2472
     72  O33       13.7720   30.1770   10.6600 O.2   100  LIG100     -0.2725
     73  C34       14.2290   28.0910    9.4590 C.3   100  LIG100      0.1029
     74  H39       15.0570   27.3900    9.6070 H     100  LIG100      0.0597
     75  N35       12.9640   27.3060    9.4360 N.am  100  LIG100     -0.3039
     76  H40       12.0670   27.7840    9.3660 H     100  LIG100      0.1495
     77  C36       14.5000   28.8190    8.1100 C.3   100  LIG100     -0.0197
     78  H41       13.6510   29.4750    7.8990 H     100  LIG100      0.0318
     79  C37       15.7670   29.6870    8.1530 C.3   100  LIG100     -0.0605
     80  H42       16.6440   29.1030    8.4470 H     100  LIG100      0.0233
     81  H43       15.6560   30.4960    8.8810 H     100  LIG100      0.0233
     82  H44       15.9680   30.1560    7.1860 H     100  LIG100      0.0233
     83  C38       14.6320   27.8350    6.9400 C.3   100  LIG100     -0.0605
     84  H45       13.6940   27.2950    6.7900 H     100  LIG100      0.0233
     85  H46       15.4150   27.0940    7.1280 H     100  LIG100      0.0233
     86  H47       14.8670   28.3520    6.0040 H     100  LIG100      0.0233
     87  C39       12.9590   25.9270    9.5930 C.cat 100  LIG100      0.2105
     88  O40       13.9520   25.2590    9.6840 O.2   100  LIG100     -0.2761
     89  C41       11.5830   25.3100    9.5810 C.3   100  LIG100      0.0122
     90  H48       11.4480   24.7850    8.6330 H     100  LIG100      0.0322
     91  H49       10.7990   26.0580    9.7060 H     100  LIG100      0.0322
     92  H50       11.5170   24.5950   10.4050 H     100  LIG100      0.0322
@<TRIPOS>BOND
     1    86    83    1
     2    84    83    1
     3    83    85    1
     4    83    77    1
     5    82    79    1
     6    78    77    1
     7    77    79    1
     8    77    73    1
     9    79    80    1
    10    79    81    1
    11    90    89    1
    12    39     5    1
    13    76    75    1
    14    40     6    1
    15    75    73    1
    16    75    87   am
    17    73    74    1
    18    73    71    1
    19    89    87    1
    20    89    91    1
    21    89    92    1
    22    87    88    2
    23     5     6   ar
    24     5     4   ar
    25     6     1   ar
    26    35    33    1
    27    38     4    1
    28    72    71    2
    29    71    69   am
    30     4     3   ar
    31     1    33    1
    32     1     2   ar
    33    33    34    1
    34    33    31    1
    35     3     2   ar
    36     3    37    1
    37    42    41    1
    38    70    69    1
    39    69    48    1
    40     2    36    1
    41    64    63    1
    42    32    31    1
    43    31    41    1
    44    31    29    1
    45    68    66    1
    46    41    43    1
    47    41    45    1
    48    53    52    1
    49    65    63    1
    50    63    66    1
    51    63    60    1
    52    48    45    1
    53    48    49    1
    54    43    44    1
    55    66    52    1
    56    66    67    1
    57    58    57    1
    58    45    47    1
    59    45    46    1
    60    29    30    1
    61    29    27   am
    62    28    27    2
    63    52    49    1
    64    52    54    1
    65    61    60    1
    66    10     7    1
    67    60    57    1
    68    60    62    1
    69    49    51    1
    70    49    50    1
    71    27    15    1
    72    57    54    1
    73    57    59    1
    74    54    55    1
    75    54    56    1
    76    14    13    1
    77     7     8    1
    78     7    11    1
    79     7     9    1
    80    13    11   am
    81    13    15    1
    82    11    12    2
    83    15    16    1
    84    15    17    1
    85    21    19    1
    86    18    17    1
    87    17    19    1
    88    17    23    1
    89    19    20    1
    90    19    22    1
    91    24    23    1
    92    23    25    1
    93    23    26    1
