MODEL 1
REMARK VINA RESULT:    -6.703      0.000      0.000
REMARK INTER + INTRA:          -7.956
REMARK INTER:                  -7.675
REMARK INTRA:                  -0.282
REMARK UNBOUND:                -0.274
REMARK SMILES O=c1c(-c2ccc(O)cc2)coc2cc(O)cc(O)c12
REMARK SMILES IDX 12 1 1 2 20 3 3 4 13 5 2 6 18 7 11 8 14 9 17 10 15 11 4 12
REMARK SMILES IDX 5 13 10 14 6 15 9 16 7 17 8 18 19 20 16 22
REMARK H PARENT 8 19 19 21 16 23
REMARK Flexibility Score: inf
ROOT
ATOM      1  O   UNL     1      28.588 -23.879 -12.875  1.00  0.00    -0.463 OA
ATOM      2  O   UNL     1      29.605 -27.719 -13.806  1.00  0.00    -0.288 OA
ATOM      3  C   UNL     1      27.923 -26.077 -13.660  1.00  0.00     0.107 A 
ATOM      4  C   UNL     1      30.321 -25.568 -13.079  1.00  0.00     0.065 A 
ATOM      5  C   UNL     1      27.632 -24.757 -13.317  1.00  0.00     0.145 A 
ATOM      6  C   UNL     1      29.312 -26.559 -13.544  1.00  0.00     0.204 A 
ATOM      7  C   UNL     1      26.908 -26.927 -14.104  1.00  0.00     0.134 A 
ATOM      8  C   UNL     1      29.882 -24.333 -12.790  1.00  0.00     0.208 A 
ATOM      9  C   UNL     1      26.324 -24.280 -13.415  1.00  0.00     0.094 A 
ATOM     10  C   UNL     1      25.601 -26.449 -14.202  1.00  0.00     0.093 A 
ATOM     11  C   UNL     1      25.309 -25.129 -13.859  1.00  0.00     0.123 A 
ENDROOT
BRANCH   4  12
ATOM     12  C   UNL     1      31.748 -25.907 -12.956  1.00  0.00    -0.011 A 
ATOM     13  C   UNL     1      32.298 -26.178 -11.702  1.00  0.00     0.013 A 
ATOM     14  C   UNL     1      32.556 -25.960 -14.094  1.00  0.00     0.013 A 
ATOM     15  C   UNL     1      33.650 -26.501 -11.586  1.00  0.00     0.047 A 
ATOM     16  C   UNL     1      33.908 -26.283 -13.978  1.00  0.00     0.047 A 
ATOM     17  C   UNL     1      34.455 -26.554 -12.724  1.00  0.00     0.115 A 
BRANCH  17  18
ATOM     18  O   UNL     1      35.774 -26.869 -12.611  1.00  0.00    -0.508 OA
ATOM     19  H   UNL     1      36.225 -26.164 -12.113  1.00  0.00     0.293 HD
ENDBRANCH  17  18
ENDBRANCH   4  12
BRANCH   7  20
ATOM     20  O   UNL     1      27.137 -28.224 -14.453  1.00  0.00    -0.507 OA
ATOM     21  H   UNL     1      26.552 -28.492 -15.179  1.00  0.00     0.293 HD
ENDBRANCH   7  20
BRANCH  11  22
ATOM     22  O   UNL     1      24.032 -24.668 -13.955  1.00  0.00    -0.508 OA
ATOM     23  H   UNL     1      23.584 -24.800 -13.102  1.00  0.00     0.293 HD
ENDBRANCH  11  22
TORSDOF 4

ENDMDL
MODEL 2
REMARK VINA RESULT:    -6.235      1.397      6.708
REMARK INTER + INTRA:          -7.420
REMARK INTER:                  -7.140
REMARK INTRA:                  -0.281
REMARK UNBOUND:                -0.274
REMARK SMILES O=c1c(-c2ccc(O)cc2)coc2cc(O)cc(O)c12
REMARK SMILES IDX 12 1 1 2 20 3 3 4 13 5 2 6 18 7 11 8 14 9 17 10 15 11 4 12
REMARK SMILES IDX 5 13 10 14 6 15 9 16 7 17 8 18 19 20 16 22
REMARK H PARENT 8 19 19 21 16 23
REMARK Flexibility Score: inf
ROOT
ATOM      1  O   UNL     1      31.164 -25.189 -11.204  1.00  0.00    -0.463 OA
ATOM      2  O   UNL     1      29.749 -27.258 -14.423  1.00  0.00    -0.288 OA
ATOM      3  C   UNL     1      31.538 -26.828 -12.954  1.00  0.00     0.107 A 
ATOM      4  C   UNL     1      29.311 -25.680 -12.696  1.00  0.00     0.065 A 
ATOM      5  C   UNL     1      31.971 -26.086 -11.856  1.00  0.00     0.145 A 
ATOM      6  C   UNL     1      30.159 -26.647 -13.444  1.00  0.00     0.204 A 
ATOM      7  C   UNL     1      32.406 -27.727 -13.579  1.00  0.00     0.134 A 
ATOM      8  C   UNL     1      29.875 -25.044 -11.657  1.00  0.00     0.208 A 
ATOM      9  C   UNL     1      33.273 -26.237 -11.378  1.00  0.00     0.094 A 
ATOM     10  C   UNL     1      33.707 -27.877 -13.100  1.00  0.00     0.093 A 
ATOM     11  C   UNL     1      34.140 -27.135 -12.001  1.00  0.00     0.123 A 
ENDROOT
BRANCH   4  12
ATOM     12  C   UNL     1      27.905 -25.434 -13.056  1.00  0.00    -0.011 A 
ATOM     13  C   UNL     1      26.918 -26.350 -12.687  1.00  0.00     0.013 A 
ATOM     14  C   UNL     1      27.555 -24.285 -13.766  1.00  0.00     0.013 A 
ATOM     15  C   UNL     1      25.585 -26.117 -13.028  1.00  0.00     0.047 A 
ATOM     16  C   UNL     1      26.222 -24.052 -14.107  1.00  0.00     0.047 A 
ATOM     17  C   UNL     1      25.238 -24.968 -13.737  1.00  0.00     0.115 A 
BRANCH  17  18
ATOM     18  O   UNL     1      23.937 -24.740 -14.070  1.00  0.00    -0.508 OA
ATOM     19  H   UNL     1      23.393 -24.788 -13.264  1.00  0.00     0.293 HD
ENDBRANCH  17  18
ENDBRANCH   4  12
BRANCH   7  20
ATOM     20  O   UNL     1      32.034 -28.478 -14.654  1.00  0.00    -0.507 OA
ATOM     21  H   UNL     1      32.779 -29.010 -14.973  1.00  0.00     0.293 HD
ENDBRANCH   7  20
BRANCH  11  22
ATOM     22  O   UNL     1      35.412 -27.285 -11.538  1.00  0.00    -0.508 OA
ATOM     23  H   UNL     1      35.972 -26.590 -11.924  1.00  0.00     0.293 HD
ENDBRANCH  11  22
TORSDOF 4

ENDMDL
MODEL 3
REMARK VINA RESULT:    -6.233     10.286     13.795
REMARK INTER + INTRA:          -7.418
REMARK INTER:                  -7.113
REMARK INTRA:                  -0.305
REMARK UNBOUND:                -0.274
REMARK SMILES O=c1c(-c2ccc(O)cc2)coc2cc(O)cc(O)c12
REMARK SMILES IDX 12 1 1 2 20 3 3 4 13 5 2 6 18 7 11 8 14 9 17 10 15 11 4 12
REMARK SMILES IDX 5 13 10 14 6 15 9 16 7 17 8 18 19 20 16 22
REMARK H PARENT 8 19 19 21 16 23
REMARK Flexibility Score: inf
ROOT
ATOM      1  O   UNL     1      41.919 -22.911 -14.887  1.00  0.00    -0.463 OA
ATOM      2  O   UNL     1      40.907 -19.112 -15.979  1.00  0.00    -0.288 OA
ATOM      3  C   UNL     1      40.211 -21.321 -15.553  1.00  0.00     0.107 A 
ATOM      4  C   UNL     1      42.615 -20.617 -15.280  1.00  0.00     0.065 A 
ATOM      5  C   UNL     1      40.617 -22.603 -15.185  1.00  0.00     0.145 A 
ATOM      6  C   UNL     1      41.217 -20.245 -15.631  1.00  0.00     0.204 A 
ATOM      7  C   UNL     1      38.869 -21.066 -15.847  1.00  0.00     0.134 A 
ATOM      8  C   UNL     1      42.844 -21.896 -14.943  1.00  0.00     0.208 A 
ATOM      9  C   UNL     1      39.683 -23.638 -15.110  1.00  0.00     0.094 A 
ATOM     10  C   UNL     1      37.938 -22.101 -15.771  1.00  0.00     0.093 A 
ATOM     11  C   UNL     1      38.343 -23.384 -15.402  1.00  0.00     0.123 A 
ENDROOT
BRANCH   4  12
ATOM     12  C   UNL     1      43.707 -19.631 -15.279  1.00  0.00    -0.011 A 
ATOM     13  C   UNL     1      43.954 -18.861 -14.141  1.00  0.00     0.013 A 
ATOM     14  C   UNL     1      44.500 -19.462 -16.416  1.00  0.00     0.013 A 
ATOM     15  C   UNL     1      44.990 -17.927 -14.140  1.00  0.00     0.047 A 
ATOM     16  C   UNL     1      45.536 -18.528 -16.414  1.00  0.00     0.047 A 
ATOM     17  C   UNL     1      45.781 -17.761 -15.276  1.00  0.00     0.115 A 
BRANCH  17  18
ATOM     18  O   UNL     1      46.792 -16.849 -15.275  1.00  0.00    -0.508 OA
ATOM     19  H   UNL     1      46.958 -16.563 -16.191  1.00  0.00     0.293 HD
ENDBRANCH  17  18
ENDBRANCH   4  12
BRANCH   7  20
ATOM     20  O   UNL     1      38.419 -19.832 -16.210  1.00  0.00    -0.507 OA
ATOM     21  H   UNL     1      38.196 -19.813 -17.154  1.00  0.00     0.293 HD
ENDBRANCH   7  20
BRANCH  11  22
ATOM     22  O   UNL     1      37.429 -24.391 -15.330  1.00  0.00    -0.508 OA
ATOM     23  H   UNL     1      36.565 -24.016 -15.087  1.00  0.00     0.293 HD
ENDBRANCH  11  22
TORSDOF 4

ENDMDL
MODEL 4
REMARK VINA RESULT:    -6.227      1.256      2.784
REMARK INTER + INTRA:          -7.411
REMARK INTER:                  -7.289
REMARK INTRA:                  -0.122
REMARK UNBOUND:                -0.274
REMARK SMILES O=c1c(-c2ccc(O)cc2)coc2cc(O)cc(O)c12
REMARK SMILES IDX 12 1 1 2 20 3 3 4 13 5 2 6 18 7 11 8 14 9 17 10 15 11 4 12
REMARK SMILES IDX 5 13 10 14 6 15 9 16 7 17 8 18 19 20 16 22
REMARK H PARENT 8 19 19 21 16 23
REMARK Flexibility Score: inf
ROOT
ATOM      1  O   UNL     1      29.608 -27.373 -14.364  1.00  0.00    -0.463 OA
ATOM      2  O   UNL     1      31.134 -24.479 -11.926  1.00  0.00    -0.288 OA
ATOM      3  C   UNL     1      29.239 -25.447 -12.934  1.00  0.00     0.107 A 
ATOM      4  C   UNL     1      31.547 -26.396 -13.277  1.00  0.00     0.065 A 
ATOM      5  C   UNL     1      28.775 -26.451 -13.783  1.00  0.00     0.145 A 
ATOM      6  C   UNL     1      30.682 -25.363 -12.643  1.00  0.00     0.204 A 
ATOM      7  C   UNL     1      28.344 -24.534 -12.371  1.00  0.00     0.134 A 
ATOM      8  C   UNL     1      30.948 -27.298 -14.069  1.00  0.00     0.208 A 
ATOM      9  C   UNL     1      27.414 -26.546 -14.076  1.00  0.00     0.094 A 
ATOM     10  C   UNL     1      26.984 -24.631 -12.665  1.00  0.00     0.093 A 
ATOM     11  C   UNL     1      26.519 -25.634 -13.515  1.00  0.00     0.123 A 
ENDROOT
BRANCH   4  12
ATOM     12  C   UNL     1      32.999 -26.450 -13.038  1.00  0.00    -0.011 A 
ATOM     13  C   UNL     1      33.888 -26.366 -14.111  1.00  0.00     0.013 A 
ATOM     14  C   UNL     1      33.491 -26.584 -11.739  1.00  0.00     0.013 A 
ATOM     15  C   UNL     1      35.264 -26.416 -13.885  1.00  0.00     0.047 A 
ATOM     16  C   UNL     1      34.866 -26.634 -11.513  1.00  0.00     0.047 A 
ATOM     17  C   UNL     1      35.753 -26.550 -12.586  1.00  0.00     0.115 A 
BRANCH  17  18
ATOM     18  O   UNL     1      37.095 -26.599 -12.365  1.00  0.00    -0.508 OA
ATOM     19  H   UNL     1      37.374 -25.770 -11.939  1.00  0.00     0.293 HD
ENDBRANCH  17  18
ENDBRANCH   4  12
BRANCH   7  20
ATOM     20  O   UNL     1      28.743 -23.535 -11.534  1.00  0.00    -0.507 OA
ATOM     21  H   UNL     1      28.569 -23.773 -10.611  1.00  0.00     0.293 HD
ENDBRANCH   7  20
BRANCH  11  22
ATOM     22  O   UNL     1      25.191 -25.724 -13.799  1.00  0.00    -0.508 OA
ATOM     23  H   UNL     1      24.744 -24.924 -13.473  1.00  0.00     0.293 HD
ENDBRANCH  11  22
TORSDOF 4

ENDMDL
MODEL 5
REMARK VINA RESULT:    -6.145     10.306     13.945
REMARK INTER + INTRA:          -7.317
REMARK INTER:                  -7.022
REMARK INTRA:                  -0.294
REMARK UNBOUND:                -0.274
REMARK SMILES O=c1c(-c2ccc(O)cc2)coc2cc(O)cc(O)c12
REMARK SMILES IDX 12 1 1 2 20 3 3 4 13 5 2 6 18 7 11 8 14 9 17 10 15 11 4 12
REMARK SMILES IDX 5 13 10 14 6 15 9 16 7 17 8 18 19 20 16 22
REMARK H PARENT 8 19 19 21 16 23
REMARK Flexibility Score: inf
ROOT
ATOM      1  O   UNL     1      39.867 -20.155 -15.666  1.00  0.00    -0.463 OA
ATOM      2  O   UNL     1      43.347 -22.078 -14.749  1.00  0.00    -0.288 OA
ATOM      3  C   UNL     1      41.023 -22.214 -15.105  1.00  0.00     0.107 A 
ATOM      4  C   UNL     1      42.272 -20.039 -15.347  1.00  0.00     0.065 A 
ATOM      5  C   UNL     1      39.864 -21.502 -15.412  1.00  0.00     0.145 A 
ATOM      6  C   UNL     1      42.310 -21.496 -15.044  1.00  0.00     0.204 A 
ATOM      7  C   UNL     1      40.959 -23.586 -14.854  1.00  0.00     0.134 A 
ATOM      8  C   UNL     1      41.075 -19.501 -15.628  1.00  0.00     0.208 A 
ATOM      9  C   UNL     1      38.634 -22.159 -15.470  1.00  0.00     0.094 A 
ATOM     10  C   UNL     1      39.729 -24.242 -14.912  1.00  0.00     0.093 A 
ATOM     11  C   UNL     1      38.569 -23.531 -15.220  1.00  0.00     0.123 A 
ENDROOT
BRANCH   4  12
ATOM     12  C   UNL     1      43.490 -19.213 -15.360  1.00  0.00    -0.011 A 
ATOM     13  C   UNL     1      44.320 -19.206 -16.483  1.00  0.00     0.013 A 
ATOM     14  C   UNL     1      43.821 -18.434 -14.249  1.00  0.00     0.013 A 
ATOM     15  C   UNL     1      45.474 -18.423 -16.496  1.00  0.00     0.047 A 
ATOM     16  C   UNL     1      44.975 -17.651 -14.262  1.00  0.00     0.047 A 
ATOM     17  C   UNL     1      45.801 -17.646 -15.385  1.00  0.00     0.115 A 
BRANCH  17  18
ATOM     18  O   UNL     1      46.928 -16.881 -15.398  1.00  0.00    -0.508 OA
ATOM     19  H   UNL     1      47.114 -16.610 -16.314  1.00  0.00     0.293 HD
ENDBRANCH  17  18
ENDBRANCH   4  12
BRANCH   7  20
ATOM     20  O   UNL     1      42.060 -24.329 -14.550  1.00  0.00    -0.507 OA
ATOM     21  H   UNL     1      42.112 -25.113 -15.119  1.00  0.00     0.293 HD
ENDBRANCH   7  20
BRANCH  11  22
ATOM     22  O   UNL     1      37.371 -24.175 -15.275  1.00  0.00    -0.508 OA
ATOM     23  H   UNL     1      37.086 -24.232 -16.204  1.00  0.00     0.293 HD
ENDBRANCH  11  22
TORSDOF 4

ENDMDL
MODEL 6
REMARK VINA RESULT:    -6.140      3.305      8.161
REMARK INTER + INTRA:          -7.312
REMARK INTER:                  -7.060
REMARK INTRA:                  -0.251
REMARK UNBOUND:                -0.274
REMARK SMILES O=c1c(-c2ccc(O)cc2)coc2cc(O)cc(O)c12
REMARK SMILES IDX 12 1 1 2 20 3 3 4 13 5 2 6 18 7 11 8 14 9 17 10 15 11 4 12
REMARK SMILES IDX 5 13 10 14 6 15 9 16 7 17 8 18 19 20 16 22
REMARK H PARENT 8 19 19 21 16 23
REMARK Flexibility Score: inf
ROOT
ATOM      1  O   UNL     1      33.954 -28.933 -13.413  1.00  0.00    -0.463 OA
ATOM      2  O   UNL     1      34.605 -25.810 -10.870  1.00  0.00    -0.288 OA
ATOM      3  C   UNL     1      35.468 -27.706 -11.968  1.00  0.00     0.107 A 
ATOM      4  C   UNL     1      33.091 -26.947 -12.314  1.00  0.00     0.065 A 
ATOM      5  C   UNL     1      35.185 -28.760 -12.835  1.00  0.00     0.145 A 
ATOM      6  C   UNL     1      34.406 -26.733 -11.649  1.00  0.00     0.204 A 
ATOM      7  C   UNL     1      36.742 -27.580 -11.408  1.00  0.00     0.134 A 
ATOM      8  C   UNL     1      32.978 -28.009 -13.126  1.00  0.00     0.208 A 
ATOM      9  C   UNL     1      36.173 -29.694 -13.147  1.00  0.00     0.094 A 
ATOM     10  C   UNL     1      37.728 -28.515 -11.720  1.00  0.00     0.093 A 
ATOM     11  C   UNL     1      37.446 -29.570 -12.588  1.00  0.00     0.123 A 
ENDROOT
BRANCH   4  12
ATOM     12  C   UNL     1      31.959 -26.028 -12.114  1.00  0.00    -0.011 A 
ATOM     13  C   UNL     1      31.245 -26.047 -10.914  1.00  0.00     0.013 A 
ATOM     14  C   UNL     1      31.595 -25.134 -13.123  1.00  0.00     0.013 A 
ATOM     15  C   UNL     1      30.173 -25.175 -10.724  1.00  0.00     0.047 A 
ATOM     16  C   UNL     1      30.523 -24.262 -12.933  1.00  0.00     0.047 A 
ATOM     17  C   UNL     1      29.812 -24.283 -11.733  1.00  0.00     0.115 A 
BRANCH  17  18
ATOM     18  O   UNL     1      28.765 -23.432 -11.548  1.00  0.00    -0.508 OA
ATOM     19  H   UNL     1      28.678 -23.243 -10.597  1.00  0.00     0.293 HD
ENDBRANCH  17  18
ENDBRANCH   4  12
BRANCH   7  20
ATOM     20  O   UNL     1      37.073 -26.569 -10.556  1.00  0.00    -0.507 OA
ATOM     21  H   UNL     1      36.333 -25.950 -10.456  1.00  0.00     0.293 HD
ENDBRANCH   7  20
BRANCH  11  22
ATOM     22  O   UNL     1      38.412 -30.480 -12.889  1.00  0.00    -0.508 OA
ATOM     23  H   UNL     1      38.458 -30.583 -13.856  1.00  0.00     0.293 HD
ENDBRANCH  11  22
TORSDOF 4

ENDMDL
MODEL 7
REMARK VINA RESULT:    -6.124      2.939      6.868
REMARK INTER + INTRA:          -7.293
REMARK INTER:                  -6.997
REMARK INTRA:                  -0.297
REMARK UNBOUND:                -0.274
REMARK SMILES O=c1c(-c2ccc(O)cc2)coc2cc(O)cc(O)c12
REMARK SMILES IDX 12 1 1 2 20 3 3 4 13 5 2 6 18 7 11 8 14 9 17 10 15 11 4 12
REMARK SMILES IDX 5 13 10 14 6 15 9 16 7 17 8 18 19 20 16 22
REMARK H PARENT 8 19 19 21 16 23
REMARK Flexibility Score: inf
ROOT
ATOM      1  O   UNL     1      28.914 -27.435 -13.944  1.00  0.00    -0.463 OA
ATOM      2  O   UNL     1      25.761 -25.049 -14.949  1.00  0.00    -0.288 OA
ATOM      3  C   UNL     1      27.593 -25.443 -13.523  1.00  0.00     0.107 A 
ATOM      4  C   UNL     1      27.053 -26.988 -15.439  1.00  0.00     0.065 A 
ATOM      5  C   UNL     1      28.649 -26.301 -13.220  1.00  0.00     0.145 A 
ATOM      6  C   UNL     1      26.717 -25.760 -14.667  1.00  0.00     0.204 A 
ATOM      7  C   UNL     1      27.370 -24.302 -12.748  1.00  0.00     0.134 A 
ATOM      8  C   UNL     1      28.105 -27.708 -15.020  1.00  0.00     0.208 A 
ATOM      9  C   UNL     1      29.488 -26.024 -12.139  1.00  0.00     0.094 A 
ATOM     10  C   UNL     1      28.209 -24.027 -11.669  1.00  0.00     0.093 A 
ATOM     11  C   UNL     1      29.266 -24.885 -11.365  1.00  0.00     0.123 A 
ENDROOT
BRANCH   4  12
ATOM     12  C   UNL     1      26.284 -27.397 -16.625  1.00  0.00    -0.011 A 
ATOM     13  C   UNL     1      25.282 -28.363 -16.512  1.00  0.00     0.013 A 
ATOM     14  C   UNL     1      26.554 -26.820 -17.868  1.00  0.00     0.013 A 
ATOM     15  C   UNL     1      24.553 -28.750 -17.636  1.00  0.00     0.047 A 
ATOM     16  C   UNL     1      25.824 -27.207 -18.992  1.00  0.00     0.047 A 
ATOM     17  C   UNL     1      24.824 -28.171 -18.876  1.00  0.00     0.115 A 
BRANCH  17  18
ATOM     18  O   UNL     1      24.112 -28.549 -19.974  1.00  0.00    -0.508 OA
ATOM     19  H   UNL     1      23.166 -28.562 -19.746  1.00  0.00     0.293 HD
ENDBRANCH  17  18
ENDBRANCH   4  12
BRANCH   7  20
ATOM     20  O   UNL     1      26.354 -23.430 -13.002  1.00  0.00    -0.507 OA
ATOM     21  H   UNL     1      26.566 -22.549 -12.658  1.00  0.00     0.293 HD
ENDBRANCH   7  20
BRANCH  11  22
ATOM     22  O   UNL     1      30.082 -24.611 -10.309  1.00  0.00    -0.508 OA
ATOM     23  H   UNL     1      30.105 -25.385  -9.720  1.00  0.00     0.293 HD
ENDBRANCH  11  22
TORSDOF 4

ENDMDL
MODEL 8
REMARK VINA RESULT:    -6.084     17.507     18.142
REMARK INTER + INTRA:          -7.247
REMARK INTER:                  -7.008
REMARK INTRA:                  -0.238
REMARK UNBOUND:                -0.274
REMARK SMILES O=c1c(-c2ccc(O)cc2)coc2cc(O)cc(O)c12
REMARK SMILES IDX 12 1 1 2 20 3 3 4 13 5 2 6 18 7 11 8 14 9 17 10 15 11 4 12
REMARK SMILES IDX 5 13 10 14 6 15 9 16 7 17 8 18 19 20 16 22
REMARK H PARENT 8 19 19 21 16 23
REMARK Flexibility Score: inf
ROOT
ATOM      1  O   UNL     1      30.912 -21.046 -29.487  1.00  0.00    -0.463 OA
ATOM      2  O   UNL     1      32.267 -17.277 -30.263  1.00  0.00    -0.288 OA
ATOM      3  C   UNL     1      30.434 -18.746 -30.094  1.00  0.00     0.107 A 
ATOM      4  C   UNL     1      32.787 -19.508 -29.616  1.00  0.00     0.065 A 
ATOM      5  C   UNL     1      30.030 -20.054 -29.829  1.00  0.00     0.145 A 
ATOM      6  C   UNL     1      31.867 -18.406 -30.009  1.00  0.00     0.204 A 
ATOM      7  C   UNL     1      29.490 -17.775 -30.438  1.00  0.00     0.134 A 
ATOM      8  C   UNL     1      32.242 -20.713 -29.391  1.00  0.00     0.208 A 
ATOM      9  C   UNL     1      28.681 -20.399 -29.907  1.00  0.00     0.094 A 
ATOM     10  C   UNL     1      28.141 -18.122 -30.516  1.00  0.00     0.093 A 
ATOM     11  C   UNL     1      27.737 -19.430 -30.251  1.00  0.00     0.123 A 
ENDROOT
BRANCH   4  12
ATOM     12  C   UNL     1      34.235 -19.295 -29.457  1.00  0.00    -0.011 A 
ATOM     13  C   UNL     1      34.719 -18.548 -28.381  1.00  0.00     0.013 A 
ATOM     14  C   UNL     1      35.129 -19.840 -30.380  1.00  0.00     0.013 A 
ATOM     15  C   UNL     1      36.091 -18.347 -28.229  1.00  0.00     0.047 A 
ATOM     16  C   UNL     1      36.501 -19.639 -30.229  1.00  0.00     0.047 A 
ATOM     17  C   UNL     1      36.982 -18.892 -29.153  1.00  0.00     0.115 A 
BRANCH  17  18
ATOM     18  O   UNL     1      38.321 -18.696 -29.006  1.00  0.00    -0.508 OA
ATOM     19  H   UNL     1      38.738 -19.542 -28.767  1.00  0.00     0.293 HD
ENDBRANCH  17  18
ENDBRANCH   4  12
BRANCH   7  20
ATOM     20  O   UNL     1      29.830 -16.483 -30.705  1.00  0.00    -0.507 OA
ATOM     21  H   UNL     1      30.763 -16.421 -30.963  1.00  0.00     0.293 HD
ENDBRANCH   7  20
BRANCH  11  22
ATOM     22  O   UNL     1      26.419 -19.763 -30.329  1.00  0.00    -0.508 OA
ATOM     23  H   UNL     1      26.330 -20.725 -30.213  1.00  0.00     0.293 HD
ENDBRANCH  11  22
TORSDOF 4

ENDMDL
MODEL 9
REMARK VINA RESULT:    -6.076      2.066      3.490
REMARK INTER + INTRA:          -7.238
REMARK INTER:                  -7.203
REMARK INTRA:                  -0.035
REMARK UNBOUND:                -0.274
REMARK SMILES O=c1c(-c2ccc(O)cc2)coc2cc(O)cc(O)c12
REMARK SMILES IDX 12 1 1 2 20 3 3 4 13 5 2 6 18 7 11 8 14 9 17 10 15 11 4 12
REMARK SMILES IDX 5 13 10 14 6 15 9 16 7 17 8 18 19 20 16 22
REMARK H PARENT 8 19 19 21 16 23
REMARK Flexibility Score: inf
ROOT
ATOM      1  O   UNL     1      30.657 -27.086 -13.957  1.00  0.00    -0.463 OA
ATOM      2  O   UNL     1      31.979 -25.492 -10.442  1.00  0.00    -0.288 OA
ATOM      3  C   UNL     1      30.222 -25.732 -11.991  1.00  0.00     0.107 A 
ATOM      4  C   UNL     1      32.443 -26.872 -12.326  1.00  0.00     0.065 A 
ATOM      5  C   UNL     1      29.828 -26.294 -13.205  1.00  0.00     0.145 A 
ATOM      6  C   UNL     1      31.584 -25.991 -11.488  1.00  0.00     0.204 A 
ATOM      7  C   UNL     1      29.335 -24.932 -11.267  1.00  0.00     0.134 A 
ATOM      8  C   UNL     1      31.916 -27.338 -13.469  1.00  0.00     0.208 A 
ATOM      9  C   UNL     1      28.546 -26.059 -13.701  1.00  0.00     0.094 A 
ATOM     10  C   UNL     1      28.053 -24.698 -11.765  1.00  0.00     0.093 A 
ATOM     11  C   UNL     1      27.658 -25.260 -12.979  1.00  0.00     0.123 A 
ENDROOT
BRANCH   4  12
ATOM     12  C   UNL     1      33.809 -27.242 -11.921  1.00  0.00    -0.011 A 
ATOM     13  C   UNL     1      34.191 -28.584 -11.889  1.00  0.00     0.013 A 
ATOM     14  C   UNL     1      34.728 -26.251 -11.569  1.00  0.00     0.013 A 
ATOM     15  C   UNL     1      35.485 -28.935 -11.506  1.00  0.00     0.047 A 
ATOM     16  C   UNL     1      36.022 -26.602 -11.186  1.00  0.00     0.047 A 
ATOM     17  C   UNL     1      36.401 -27.944 -11.155  1.00  0.00     0.115 A 
BRANCH  17  18
ATOM     18  O   UNL     1      37.665 -28.285 -10.781  1.00  0.00    -0.508 OA
ATOM     19  H   UNL     1      38.299 -27.739 -11.278  1.00  0.00     0.293 HD
ENDBRANCH  17  18
ENDBRANCH   4  12
BRANCH   7  20
ATOM     20  O   UNL     1      29.667 -24.359 -10.076  1.00  0.00    -0.507 OA
ATOM     21  H   UNL     1      30.588 -24.055 -10.088  1.00  0.00     0.293 HD
ENDBRANCH   7  20
BRANCH  11  22
ATOM     22  O   UNL     1      26.406 -25.028 -13.461  1.00  0.00    -0.508 OA
ATOM     23  H   UNL     1      25.799 -25.692 -13.094  1.00  0.00     0.293 HD
ENDBRANCH  11  22
TORSDOF 4

ENDMDL
MODEL 10
REMARK VINA RESULT:    -6.058     17.161     17.669
REMARK INTER + INTRA:          -7.217
REMARK INTER:                  -6.972
REMARK INTRA:                  -0.245
REMARK UNBOUND:                -0.274
REMARK SMILES O=c1c(-c2ccc(O)cc2)coc2cc(O)cc(O)c12
REMARK SMILES IDX 12 1 1 2 20 3 3 4 13 5 2 6 18 7 11 8 14 9 17 10 15 11 4 12
REMARK SMILES IDX 5 13 10 14 6 15 9 16 7 17 8 18 19 20 16 22
REMARK H PARENT 8 19 19 21 16 23
REMARK Flexibility Score: inf
ROOT
ATOM      1  O   UNL     1      30.603 -17.869 -30.318  1.00  0.00    -0.463 OA
ATOM      2  O   UNL     1      32.277 -21.365 -29.044  1.00  0.00    -0.288 OA
ATOM      3  C   UNL     1      30.340 -20.205 -29.713  1.00  0.00     0.107 A 
ATOM      4  C   UNL     1      32.600 -19.092 -29.675  1.00  0.00     0.065 A 
ATOM      5  C   UNL     1      29.822 -18.981 -30.135  1.00  0.00     0.145 A 
ATOM      6  C   UNL     1      31.786 -20.318 -29.445  1.00  0.00     0.204 A 
ATOM      7  C   UNL     1      29.496 -21.305 -29.543  1.00  0.00     0.134 A 
ATOM      8  C   UNL     1      31.952 -17.992 -30.086  1.00  0.00     0.208 A 
ATOM      9  C   UNL     1      28.456 -18.851 -30.390  1.00  0.00     0.094 A 
ATOM     10  C   UNL     1      28.131 -21.172 -29.798  1.00  0.00     0.093 A 
ATOM     11  C   UNL     1      27.611 -19.948 -30.221  1.00  0.00     0.123 A 
ENDROOT
BRANCH   4  12
ATOM     12  C   UNL     1      34.060 -19.079 -29.484  1.00  0.00    -0.011 A 
ATOM     13  C   UNL     1      34.617 -18.404 -28.396  1.00  0.00     0.013 A 
ATOM     14  C   UNL     1      34.891 -19.742 -30.388  1.00  0.00     0.013 A 
ATOM     15  C   UNL     1      36.000 -18.393 -28.214  1.00  0.00     0.047 A 
ATOM     16  C   UNL     1      36.274 -19.731 -30.206  1.00  0.00     0.047 A 
ATOM     17  C   UNL     1      36.828 -19.056 -29.119  1.00  0.00     0.115 A 
BRANCH  17  18
ATOM     18  O   UNL     1      38.178 -19.045 -28.942  1.00  0.00    -0.508 OA
ATOM     19  H   UNL     1      38.498 -19.963 -28.902  1.00  0.00     0.293 HD
ENDBRANCH  17  18
ENDBRANCH   4  12
BRANCH   7  20
ATOM     20  O   UNL     1      29.950 -22.523 -29.134  1.00  0.00    -0.507 OA
ATOM     21  H   UNL     1      29.836 -22.626 -28.177  1.00  0.00     0.293 HD
ENDBRANCH   7  20
BRANCH  11  22
ATOM     22  O   UNL     1      26.278 -19.824 -30.468  1.00  0.00    -0.508 OA
ATOM     23  H   UNL     1      26.149 -19.637 -31.414  1.00  0.00     0.293 HD
ENDBRANCH  11  22
TORSDOF 4

ENDMDL
MODEL 11
REMARK VINA RESULT:    -6.036     17.514     19.189
REMARK INTER + INTRA:          -7.192
REMARK INTER:                  -6.916
REMARK INTRA:                  -0.276
REMARK UNBOUND:                -0.274
REMARK SMILES O=c1c(-c2ccc(O)cc2)coc2cc(O)cc(O)c12
REMARK SMILES IDX 12 1 1 2 20 3 3 4 13 5 2 6 18 7 11 8 14 9 17 10 15 11 4 12
REMARK SMILES IDX 5 13 10 14 6 15 9 16 7 17 8 18 19 20 16 22
REMARK H PARENT 8 19 19 21 16 23
REMARK Flexibility Score: inf
ROOT
ATOM      1  O   UNL     1      33.648 -18.111 -28.022  1.00  0.00    -0.463 OA
ATOM      2  O   UNL     1      32.622 -20.251 -31.341  1.00  0.00    -0.288 OA
ATOM      3  C   UNL     1      34.329 -19.427 -29.944  1.00  0.00     0.107 A 
ATOM      4  C   UNL     1      31.896 -19.010 -29.443  1.00  0.00     0.065 A 
ATOM      5  C   UNL     1      34.621 -18.677 -28.805  1.00  0.00     0.145 A 
ATOM      6  C   UNL     1      32.920 -19.624 -30.332  1.00  0.00     0.204 A 
ATOM      7  C   UNL     1      35.362 -19.980 -30.705  1.00  0.00     0.134 A 
ATOM      8  C   UNL     1      32.338 -18.318 -28.382  1.00  0.00     0.208 A 
ATOM      9  C   UNL     1      35.947 -18.474 -28.422  1.00  0.00     0.094 A 
ATOM     10  C   UNL     1      36.688 -19.776 -30.320  1.00  0.00     0.093 A 
ATOM     11  C   UNL     1      36.980 -19.025 -29.181  1.00  0.00     0.123 A 
ENDROOT
BRANCH   4  12
ATOM     12  C   UNL     1      30.453 -19.163 -29.694  1.00  0.00    -0.011 A 
ATOM     13  C   UNL     1      29.810 -20.361 -29.375  1.00  0.00     0.013 A 
ATOM     14  C   UNL     1      29.724 -18.111 -30.252  1.00  0.00     0.013 A 
ATOM     15  C   UNL     1      28.444 -20.505 -29.612  1.00  0.00     0.047 A 
ATOM     16  C   UNL     1      28.357 -18.256 -30.488  1.00  0.00     0.047 A 
ATOM     17  C   UNL     1      27.717 -19.453 -30.168  1.00  0.00     0.115 A 
BRANCH  17  18
ATOM     18  O   UNL     1      26.383 -19.594 -30.400  1.00  0.00    -0.508 OA
ATOM     19  H   UNL     1      26.150 -19.105 -31.209  1.00  0.00     0.293 HD
ENDBRANCH  17  18
ENDBRANCH   4  12
BRANCH   7  20
ATOM     20  O   UNL     1      35.134 -20.722 -31.825  1.00  0.00    -0.507 OA
ATOM     21  H   UNL     1      35.715 -21.498 -31.846  1.00  0.00     0.293 HD
ENDBRANCH   7  20
BRANCH  11  22
ATOM     22  O   UNL     1      38.275 -18.829 -28.810  1.00  0.00    -0.508 OA
ATOM     23  H   UNL     1      38.292 -18.431 -27.923  1.00  0.00     0.293 HD
ENDBRANCH  11  22
TORSDOF 4

ENDMDL
MODEL 12
REMARK VINA RESULT:    -6.017     10.956     13.433
REMARK INTER + INTRA:          -7.170
REMARK INTER:                  -6.934
REMARK INTRA:                  -0.236
REMARK UNBOUND:                -0.274
REMARK SMILES O=c1c(-c2ccc(O)cc2)coc2cc(O)cc(O)c12
REMARK SMILES IDX 12 1 1 2 20 3 3 4 13 5 2 6 18 7 11 8 14 9 17 10 15 11 4 12
REMARK SMILES IDX 5 13 10 14 6 15 9 16 7 17 8 18 19 20 16 22
REMARK H PARENT 8 19 19 21 16 23
REMARK Flexibility Score: inf
ROOT
ATOM      1  O   UNL     1      39.339 -24.811 -18.905  1.00  0.00    -0.463 OA
ATOM      2  O   UNL     1      41.442 -21.342 -18.467  1.00  0.00    -0.288 OA
ATOM      3  C   UNL     1      41.100 -23.331 -19.679  1.00  0.00     0.107 A 
ATOM      4  C   UNL     1      39.669 -22.731 -17.695  1.00  0.00     0.065 A 
ATOM      5  C   UNL     1      40.355 -24.507 -19.773  1.00  0.00     0.145 A 
ATOM      6  C   UNL     1      40.792 -22.371 -18.603  1.00  0.00     0.204 A 
ATOM      7  C   UNL     1      42.125 -23.075 -20.593  1.00  0.00     0.134 A 
ATOM      8  C   UNL     1      39.047 -23.899 -17.919  1.00  0.00     0.208 A 
ATOM      9  C   UNL     1      40.632 -25.432 -20.781  1.00  0.00     0.094 A 
ATOM     10  C   UNL     1      42.400 -24.001 -21.599  1.00  0.00     0.093 A 
ATOM     11  C   UNL     1      41.656 -25.176 -21.694  1.00  0.00     0.123 A 
ENDROOT
BRANCH   4  12
ATOM     12  C   UNL     1      39.233 -21.843 -16.605  1.00  0.00    -0.011 A 
ATOM     13  C   UNL     1      39.472 -22.196 -15.276  1.00  0.00     0.013 A 
ATOM     14  C   UNL     1      38.580 -20.644 -16.897  1.00  0.00     0.013 A 
ATOM     15  C   UNL     1      39.061 -21.355 -14.243  1.00  0.00     0.047 A 
ATOM     16  C   UNL     1      38.169 -19.802 -15.864  1.00  0.00     0.047 A 
ATOM     17  C   UNL     1      38.409 -20.157 -14.537  1.00  0.00     0.115 A 
BRANCH  17  18
ATOM     18  O   UNL     1      38.007 -19.335 -13.529  1.00  0.00    -0.508 OA
ATOM     19  H   UNL     1      37.288 -18.766 -13.855  1.00  0.00     0.293 HD
ENDBRANCH  17  18
ENDBRANCH   4  12
BRANCH   7  20
ATOM     20  O   UNL     1      42.883 -21.943 -20.547  1.00  0.00    -0.507 OA
ATOM     21  H   UNL     1      43.799 -22.134 -20.798  1.00  0.00     0.293 HD
ENDBRANCH   7  20
BRANCH  11  22
ATOM     22  O   UNL     1      41.929 -26.077 -22.678  1.00  0.00    -0.508 OA
ATOM     23  H   UNL     1      41.471 -26.911 -22.477  1.00  0.00     0.293 HD
ENDBRANCH  11  22
TORSDOF 4

ENDMDL
MODEL 13
REMARK VINA RESULT:    -6.011     12.116     16.868
REMARK INTER + INTRA:          -7.163
REMARK INTER:                  -6.900
REMARK INTRA:                  -0.263
REMARK UNBOUND:                -0.274
REMARK SMILES O=c1c(-c2ccc(O)cc2)coc2cc(O)cc(O)c12
REMARK SMILES IDX 12 1 1 2 20 3 3 4 13 5 2 6 18 7 11 8 14 9 17 10 15 11 4 12
REMARK SMILES IDX 5 13 10 14 6 15 9 16 7 17 8 18 19 20 16 22
REMARK H PARENT 8 19 19 21 16 23
REMARK Flexibility Score: inf
ROOT
ATOM      1  O   UNL     1      44.389 -21.042 -17.779  1.00  0.00    -0.463 OA
ATOM      2  O   UNL     1      43.617 -18.414 -14.756  1.00  0.00    -0.288 OA
ATOM      3  C   UNL     1      45.166 -19.279 -16.303  1.00  0.00     0.107 A 
ATOM      4  C   UNL     1      42.788 -20.105 -16.212  1.00  0.00     0.065 A 
ATOM      5  C   UNL     1      45.375 -20.204 -17.326  1.00  0.00     0.145 A 
ATOM      6  C   UNL     1      43.834 -19.192 -15.676  1.00  0.00     0.204 A 
ATOM      7  C   UNL     1      46.209 -18.451 -15.881  1.00  0.00     0.134 A 
ATOM      8  C   UNL     1      43.147 -20.938 -17.202  1.00  0.00     0.208 A 
ATOM      9  C   UNL     1      46.629 -20.307 -17.930  1.00  0.00     0.094 A 
ATOM     10  C   UNL     1      47.461 -18.555 -16.487  1.00  0.00     0.093 A 
ATOM     11  C   UNL     1      47.671 -19.481 -17.510  1.00  0.00     0.123 A 
ENDROOT
BRANCH   4  12
ATOM     12  C   UNL     1      41.407 -20.093 -15.702  1.00  0.00    -0.011 A 
ATOM     13  C   UNL     1      41.108 -20.691 -14.476  1.00  0.00     0.013 A 
ATOM     14  C   UNL     1      40.392 -19.484 -16.443  1.00  0.00     0.013 A 
ATOM     15  C   UNL     1      39.800 -20.678 -13.993  1.00  0.00     0.047 A 
ATOM     16  C   UNL     1      39.084 -19.472 -15.959  1.00  0.00     0.047 A 
ATOM     17  C   UNL     1      38.788 -20.069 -14.734  1.00  0.00     0.115 A 
BRANCH  17  18
ATOM     18  O   UNL     1      37.511 -20.057 -14.262  1.00  0.00    -0.508 OA
ATOM     19  H   UNL     1      37.343 -19.201 -13.830  1.00  0.00     0.293 HD
ENDBRANCH  17  18
ENDBRANCH   4  12
BRANCH   7  20
ATOM     20  O   UNL     1      46.059 -17.530 -14.888  1.00  0.00    -0.507 OA
ATOM     21  H   UNL     1      46.920 -17.279 -14.521  1.00  0.00     0.293 HD
ENDBRANCH   7  20
BRANCH  11  22
ATOM     22  O   UNL     1      48.895 -19.578 -18.097  1.00  0.00    -0.508 OA
ATOM     23  H   UNL     1      49.573 -19.289 -17.462  1.00  0.00     0.293 HD
ENDBRANCH  11  22
TORSDOF 4

ENDMDL
MODEL 14
REMARK VINA RESULT:    -5.992     17.059     17.599
REMARK INTER + INTRA:          -7.142
REMARK INTER:                  -6.873
REMARK INTRA:                  -0.269
REMARK UNBOUND:                -0.274
REMARK SMILES O=c1c(-c2ccc(O)cc2)coc2cc(O)cc(O)c12
REMARK SMILES IDX 12 1 1 2 20 3 3 4 13 5 2 6 18 7 11 8 14 9 17 10 15 11 4 12
REMARK SMILES IDX 5 13 10 14 6 15 9 16 7 17 8 18 19 20 16 22
REMARK H PARENT 8 19 19 21 16 23
REMARK Flexibility Score: inf
ROOT
ATOM      1  O   UNL     1      27.408 -18.748 -30.124  1.00  0.00    -0.463 OA
ATOM      2  O   UNL     1      30.299 -21.571 -29.559  1.00  0.00    -0.288 OA
ATOM      3  C   UNL     1      28.057 -21.086 -30.092  1.00  0.00     0.107 A 
ATOM      4  C   UNL     1      29.729 -19.260 -29.627  1.00  0.00     0.065 A 
ATOM      5  C   UNL     1      27.108 -20.078 -30.262  1.00  0.00     0.145 A 
ATOM      6  C   UNL     1      29.442 -20.716 -29.747  1.00  0.00     0.204 A 
ATOM      7  C   UNL     1      27.694 -22.426 -30.244  1.00  0.00     0.134 A 
ATOM      8  C   UNL     1      28.707 -18.414 -29.823  1.00  0.00     0.208 A 
ATOM      9  C   UNL     1      25.790 -20.405 -30.584  1.00  0.00     0.094 A 
ATOM     10  C   UNL     1      26.376 -22.751 -30.567  1.00  0.00     0.093 A 
ATOM     11  C   UNL     1      25.426 -21.744 -30.737  1.00  0.00     0.123 A 
ENDROOT
BRANCH   4  12
ATOM     12  C   UNL     1      31.078 -18.754 -29.325  1.00  0.00    -0.011 A 
ATOM     13  C   UNL     1      31.570 -18.806 -28.020  1.00  0.00     0.013 A 
ATOM     14  C   UNL     1      31.870 -18.221 -30.344  1.00  0.00     0.013 A 
ATOM     15  C   UNL     1      32.849 -18.328 -27.734  1.00  0.00     0.047 A 
ATOM     16  C   UNL     1      33.149 -17.743 -30.059  1.00  0.00     0.047 A 
ATOM     17  C   UNL     1      33.638 -17.796 -28.754  1.00  0.00     0.115 A 
BRANCH  17  18
ATOM     18  O   UNL     1      34.886 -17.329 -28.476  1.00  0.00    -0.508 OA
ATOM     19  H   UNL     1      35.241 -17.814 -27.710  1.00  0.00     0.293 HD
ENDBRANCH  17  18
ENDBRANCH   4  12
BRANCH   7  20
ATOM     20  O   UNL     1      28.581 -23.449 -30.091  1.00  0.00    -0.507 OA
ATOM     21  H   UNL     1      28.155 -24.301 -30.273  1.00  0.00     0.293 HD
ENDBRANCH   7  20
BRANCH  11  22
ATOM     22  O   UNL     1      24.141 -22.067 -31.051  1.00  0.00    -0.508 OA
ATOM     23  H   UNL     1      23.578 -21.285 -30.917  1.00  0.00     0.293 HD
ENDBRANCH  11  22
TORSDOF 4

ENDMDL
MODEL 15
REMARK VINA RESULT:    -5.977     10.998     13.235
REMARK INTER + INTRA:          -7.124
REMARK INTER:                  -6.962
REMARK INTRA:                  -0.162
REMARK UNBOUND:                -0.274
REMARK SMILES O=c1c(-c2ccc(O)cc2)coc2cc(O)cc(O)c12
REMARK SMILES IDX 12 1 1 2 20 3 3 4 13 5 2 6 18 7 11 8 14 9 17 10 15 11 4 12
REMARK SMILES IDX 5 13 10 14 6 15 9 16 7 17 8 18 19 20 16 22
REMARK H PARENT 8 19 19 21 16 23
REMARK Flexibility Score: inf
ROOT
ATOM      1  O   UNL     1      41.740 -21.852 -19.819  1.00  0.00    -0.463 OA
ATOM      2  O   UNL     1      38.899 -23.961 -17.788  1.00  0.00    -0.288 OA
ATOM      3  C   UNL     1      40.466 -23.899 -19.544  1.00  0.00     0.107 A 
ATOM      4  C   UNL     1      40.157 -21.949 -17.980  1.00  0.00     0.065 A 
ATOM      5  C   UNL     1      41.420 -23.128 -20.207  1.00  0.00     0.145 A 
ATOM      6  C   UNL     1      39.764 -23.328 -18.379  1.00  0.00     0.204 A 
ATOM      7  C   UNL     1      40.180 -25.194 -19.985  1.00  0.00     0.134 A 
ATOM      8  C   UNL     1      41.096 -21.338 -18.720  1.00  0.00     0.208 A 
ATOM      9  C   UNL     1      42.093 -23.646 -21.314  1.00  0.00     0.094 A 
ATOM     10  C   UNL     1      40.854 -25.710 -21.091  1.00  0.00     0.093 A 
ATOM     11  C   UNL     1      41.809 -24.939 -21.755  1.00  0.00     0.123 A 
ENDROOT
BRANCH   4  12
ATOM     12  C   UNL     1      39.562 -21.276 -16.813  1.00  0.00    -0.011 A 
ATOM     13  C   UNL     1      38.834 -20.097 -16.980  1.00  0.00     0.013 A 
ATOM     14  C   UNL     1      39.725 -21.816 -15.536  1.00  0.00     0.013 A 
ATOM     15  C   UNL     1      38.270 -19.461 -15.875  1.00  0.00     0.047 A 
ATOM     16  C   UNL     1      39.161 -21.180 -14.431  1.00  0.00     0.047 A 
ATOM     17  C   UNL     1      38.434 -20.002 -14.600  1.00  0.00     0.115 A 
BRANCH  17  18
ATOM     18  O   UNL     1      37.884 -19.381 -13.520  1.00  0.00    -0.508 OA
ATOM     19  H   UNL     1      36.917 -19.353 -13.632  1.00  0.00     0.293 HD
ENDBRANCH  17  18
ENDBRANCH   4  12
BRANCH   7  20
ATOM     20  O   UNL     1      39.259 -25.990 -19.374  1.00  0.00    -0.507 OA
ATOM     21  H   UNL     1      39.271 -26.882 -19.755  1.00  0.00     0.293 HD
ENDBRANCH   7  20
BRANCH  11  22
ATOM     22  O   UNL     1      42.463 -25.448 -22.835  1.00  0.00    -0.508 OA
ATOM     23  H   UNL     1      42.933 -26.256 -22.566  1.00  0.00     0.293 HD
ENDBRANCH  11  22
TORSDOF 4

ENDMDL
MODEL 16
REMARK VINA RESULT:    -5.942      8.754     10.878
REMARK INTER + INTRA:          -7.084
REMARK INTER:                  -6.813
REMARK INTRA:                  -0.271
REMARK UNBOUND:                -0.274
REMARK SMILES O=c1c(-c2ccc(O)cc2)coc2cc(O)cc(O)c12
REMARK SMILES IDX 12 1 1 2 20 3 3 4 13 5 2 6 18 7 11 8 14 9 17 10 15 11 4 12
REMARK SMILES IDX 5 13 10 14 6 15 9 16 7 17 8 18 19 20 16 22
REMARK H PARENT 8 19 19 21 16 23
REMARK Flexibility Score: inf
ROOT
ATOM      1  O   UNL     1      37.418 -23.842 -15.674  1.00  0.00    -0.463 OA
ATOM      2  O   UNL     1      40.826 -25.117 -13.829  1.00  0.00    -0.288 OA
ATOM      3  C   UNL     1      39.806 -23.599 -15.311  1.00  0.00     0.107 A 
ATOM      4  C   UNL     1      38.476 -25.368 -14.109  1.00  0.00     0.065 A 
ATOM      5  C   UNL     1      38.612 -23.214 -15.921  1.00  0.00     0.145 A 
ATOM      6  C   UNL     1      39.795 -24.729 -14.363  1.00  0.00     0.204 A 
ATOM      7  C   UNL     1      40.993 -22.922 -15.602  1.00  0.00     0.134 A 
ATOM      8  C   UNL     1      37.417 -24.879 -14.773  1.00  0.00     0.208 A 
ATOM      9  C   UNL     1      38.599 -22.150 -16.825  1.00  0.00     0.094 A 
ATOM     10  C   UNL     1      40.978 -21.859 -16.505  1.00  0.00     0.093 A 
ATOM     11  C   UNL     1      39.784 -21.474 -17.115  1.00  0.00     0.123 A 
ENDROOT
BRANCH   4  12
ATOM     12  C   UNL     1      38.319 -26.480 -13.157  1.00  0.00    -0.011 A 
ATOM     13  C   UNL     1      38.698 -27.773 -13.521  1.00  0.00     0.013 A 
ATOM     14  C   UNL     1      37.791 -26.244 -11.886  1.00  0.00     0.013 A 
ATOM     15  C   UNL     1      38.551 -28.826 -12.618  1.00  0.00     0.047 A 
ATOM     16  C   UNL     1      37.644 -27.297 -10.983  1.00  0.00     0.047 A 
ATOM     17  C   UNL     1      38.024 -28.588 -11.349  1.00  0.00     0.115 A 
BRANCH  17  18
ATOM     18  O   UNL     1      37.879 -29.615 -10.468  1.00  0.00    -0.508 OA
ATOM     19  H   UNL     1      38.327 -30.402 -10.826  1.00  0.00     0.293 HD
ENDBRANCH  17  18
ENDBRANCH   4  12
BRANCH   7  20
ATOM     20  O   UNL     1      42.186 -23.256 -15.034  1.00  0.00    -0.507 OA
ATOM     21  H   UNL     1      42.706 -23.812 -15.634  1.00  0.00     0.293 HD
ENDBRANCH   7  20
BRANCH  11  22
ATOM     22  O   UNL     1      39.775 -20.436 -17.997  1.00  0.00    -0.508 OA
ATOM     23  H   UNL     1      39.867 -19.603 -17.504  1.00  0.00     0.293 HD
ENDBRANCH  11  22
TORSDOF 4

ENDMDL
MODEL 17
REMARK VINA RESULT:    -5.929      1.989      7.530
REMARK INTER + INTRA:          -7.069
REMARK INTER:                  -6.811
REMARK INTRA:                  -0.258
REMARK UNBOUND:                -0.274
REMARK SMILES O=c1c(-c2ccc(O)cc2)coc2cc(O)cc(O)c12
REMARK SMILES IDX 12 1 1 2 20 3 3 4 13 5 2 6 18 7 11 8 14 9 17 10 15 11 4 12
REMARK SMILES IDX 5 13 10 14 6 15 9 16 7 17 8 18 19 20 16 22
REMARK H PARENT 8 19 19 21 16 23
REMARK Flexibility Score: inf
ROOT
ATOM      1  O   UNL     1      34.162 -26.542 -11.215  1.00  0.00    -0.463 OA
ATOM      2  O   UNL     1      32.749 -25.850 -14.980  1.00  0.00    -0.288 OA
ATOM      3  C   UNL     1      34.560 -26.471 -13.608  1.00  0.00     0.107 A 
ATOM      4  C   UNL     1      32.290 -25.952 -12.646  1.00  0.00     0.065 A 
ATOM      5  C   UNL     1      34.990 -26.683 -12.299  1.00  0.00     0.145 A 
ATOM      6  C   UNL     1      33.159 -26.075 -13.848  1.00  0.00     0.204 A 
ATOM      7  C   UNL     1      35.449 -26.629 -14.674  1.00  0.00     0.134 A 
ATOM      8  C   UNL     1      32.855 -26.193 -11.452  1.00  0.00     0.208 A 
ATOM      9  C   UNL     1      36.312 -27.054 -12.048  1.00  0.00     0.094 A 
ATOM     10  C   UNL     1      36.770 -27.000 -14.422  1.00  0.00     0.093 A 
ATOM     11  C   UNL     1      37.201 -27.212 -13.112  1.00  0.00     0.123 A 
ENDROOT
BRANCH   4  12
ATOM     12  C   UNL     1      30.864 -25.603 -12.748  1.00  0.00    -0.011 A 
ATOM     13  C   UNL     1      30.427 -24.329 -12.378  1.00  0.00     0.013 A 
ATOM     14  C   UNL     1      29.944 -26.543 -13.214  1.00  0.00     0.013 A 
ATOM     15  C   UNL     1      29.076 -23.997 -12.476  1.00  0.00     0.047 A 
ATOM     16  C   UNL     1      28.593 -26.211 -13.312  1.00  0.00     0.047 A 
ATOM     17  C   UNL     1      28.159 -24.938 -12.943  1.00  0.00     0.115 A 
BRANCH  17  18
ATOM     18  O   UNL     1      26.840 -24.615 -13.038  1.00  0.00    -0.508 OA
ATOM     19  H   UNL     1      26.307 -25.401 -12.827  1.00  0.00     0.293 HD
ENDBRANCH  17  18
ENDBRANCH   4  12
BRANCH   7  20
ATOM     20  O   UNL     1      35.081 -26.436 -15.972  1.00  0.00    -0.507 OA
ATOM     21  H   UNL     1      34.720 -25.544 -16.096  1.00  0.00     0.293 HD
ENDBRANCH   7  20
BRANCH  11  22
ATOM     22  O   UNL     1      38.491 -27.573 -12.871  1.00  0.00    -0.508 OA
ATOM     23  H   UNL     1      38.709 -27.367 -11.946  1.00  0.00     0.293 HD
ENDBRANCH  11  22
TORSDOF 4

ENDMDL
MODEL 18
REMARK VINA RESULT:    -5.889      2.788      6.771
REMARK INTER + INTRA:          -7.024
REMARK INTER:                  -6.745
REMARK INTRA:                  -0.279
REMARK UNBOUND:                -0.274
REMARK SMILES O=c1c(-c2ccc(O)cc2)coc2cc(O)cc(O)c12
REMARK SMILES IDX 12 1 1 2 20 3 3 4 13 5 2 6 18 7 11 8 14 9 17 10 15 11 4 12
REMARK SMILES IDX 5 13 10 14 6 15 9 16 7 17 8 18 19 20 16 22
REMARK H PARENT 8 19 19 21 16 23
REMARK Flexibility Score: inf
ROOT
ATOM      1  O   UNL     1      26.510 -24.745 -13.649  1.00  0.00    -0.463 OA
ATOM      2  O   UNL     1      28.419 -28.002 -15.196  1.00  0.00    -0.288 OA
ATOM      3  C   UNL     1      28.364 -26.308 -13.561  1.00  0.00     0.107 A 
ATOM      4  C   UNL     1      26.552 -26.528 -15.298  1.00  0.00     0.065 A 
ATOM      5  C   UNL     1      27.674 -25.195 -13.083  1.00  0.00     0.145 A 
ATOM      6  C   UNL     1      27.829 -27.038 -14.726  1.00  0.00     0.204 A 
ATOM      7  C   UNL     1      29.547 -26.721 -12.944  1.00  0.00     0.134 A 
ATOM      8  C   UNL     1      26.010 -25.445 -14.721  1.00  0.00     0.208 A 
ATOM      9  C   UNL     1      28.165 -24.487 -11.985  1.00  0.00     0.094 A 
ATOM     10  C   UNL     1      30.036 -26.012 -11.846  1.00  0.00     0.093 A 
ATOM     11  C   UNL     1      29.347 -24.898 -11.367  1.00  0.00     0.123 A 
ENDROOT
BRANCH   4  12
ATOM     12  C   UNL     1      25.890 -27.186 -16.436  1.00  0.00    -0.011 A 
ATOM     13  C   UNL     1      25.988 -26.637 -17.716  1.00  0.00     0.013 A 
ATOM     14  C   UNL     1      25.163 -28.362 -16.239  1.00  0.00     0.013 A 
ATOM     15  C   UNL     1      25.362 -27.262 -18.795  1.00  0.00     0.047 A 
ATOM     16  C   UNL     1      24.537 -28.986 -17.318  1.00  0.00     0.047 A 
ATOM     17  C   UNL     1      24.637 -28.436 -18.596  1.00  0.00     0.115 A 
BRANCH  17  18
ATOM     18  O   UNL     1      24.025 -29.046 -19.648  1.00  0.00    -0.508 OA
ATOM     19  H   UNL     1      24.111 -30.010 -19.546  1.00  0.00     0.293 HD
ENDBRANCH  17  18
ENDBRANCH   4  12
BRANCH   7  20
ATOM     20  O   UNL     1      30.260 -27.801 -13.370  1.00  0.00    -0.507 OA
ATOM     21  H   UNL     1      31.118 -27.843 -12.921  1.00  0.00     0.293 HD
ENDBRANCH   7  20
BRANCH  11  22
ATOM     22  O   UNL     1      29.828 -24.209 -10.296  1.00  0.00    -0.508 OA
ATOM     23  H   UNL     1      29.289 -23.410 -10.166  1.00  0.00     0.293 HD
ENDBRANCH  11  22
TORSDOF 4

ENDMDL
MODEL 19
REMARK VINA RESULT:    -5.860      2.129      7.859
REMARK INTER + INTRA:          -6.991
REMARK INTER:                  -6.762
REMARK INTRA:                  -0.228
REMARK UNBOUND:                -0.274
REMARK SMILES O=c1c(-c2ccc(O)cc2)coc2cc(O)cc(O)c12
REMARK SMILES IDX 12 1 1 2 20 3 3 4 13 5 2 6 18 7 11 8 14 9 17 10 15 11 4 12
REMARK SMILES IDX 5 13 10 14 6 15 9 16 7 17 8 18 19 20 16 22
REMARK H PARENT 8 19 19 21 16 23
REMARK Flexibility Score: inf
ROOT
ATOM      1  O   UNL     1      34.329 -27.168 -14.593  1.00  0.00    -0.463 OA
ATOM      2  O   UNL     1      33.136 -25.783 -10.945  1.00  0.00    -0.288 OA
ATOM      3  C   UNL     1      34.896 -26.526 -12.322  1.00  0.00     0.107 A 
ATOM      4  C   UNL     1      32.533 -26.352 -13.177  1.00  0.00     0.065 A 
ATOM      5  C   UNL     1      35.244 -27.006 -13.584  1.00  0.00     0.145 A 
ATOM      6  C   UNL     1      33.489 -26.179 -12.049  1.00  0.00     0.204 A 
ATOM      7  C   UNL     1      35.871 -26.382 -11.332  1.00  0.00     0.134 A 
ATOM      8  C   UNL     1      33.025 -26.822 -14.333  1.00  0.00     0.208 A 
ATOM      9  C   UNL     1      36.569 -27.344 -13.863  1.00  0.00     0.094 A 
ATOM     10  C   UNL     1      37.195 -26.721 -11.613  1.00  0.00     0.093 A 
ATOM     11  C   UNL     1      37.544 -27.201 -12.876  1.00  0.00     0.123 A 
ENDROOT
BRANCH   4  12
ATOM     12  C   UNL     1      31.108 -26.006 -13.050  1.00  0.00    -0.011 A 
ATOM     13  C   UNL     1      30.719 -24.670 -12.937  1.00  0.00     0.013 A 
ATOM     14  C   UNL     1      30.141 -27.012 -13.044  1.00  0.00     0.013 A 
ATOM     15  C   UNL     1      29.369 -24.342 -12.818  1.00  0.00     0.047 A 
ATOM     16  C   UNL     1      28.790 -26.684 -12.926  1.00  0.00     0.047 A 
ATOM     17  C   UNL     1      28.404 -25.349 -12.813  1.00  0.00     0.115 A 
BRANCH  17  18
ATOM     18  O   UNL     1      27.086 -25.029 -12.696  1.00  0.00    -0.508 OA
ATOM     19  H   UNL     1      26.599 -25.812 -12.383  1.00  0.00     0.293 HD
ENDBRANCH  17  18
ENDBRANCH   4  12
BRANCH   7  20
ATOM     20  O   UNL     1      35.586 -25.917 -10.083  1.00  0.00    -0.507 OA
ATOM     21  H   UNL     1      36.346 -25.440  -9.714  1.00  0.00     0.293 HD
ENDBRANCH   7  20
BRANCH  11  22
ATOM     22  O   UNL     1      38.837 -27.531 -13.144  1.00  0.00    -0.508 OA
ATOM     23  H   UNL     1      38.886 -28.483 -13.334  1.00  0.00     0.293 HD
ENDBRANCH  11  22
TORSDOF 4

ENDMDL
MODEL 20
REMARK VINA RESULT:    -5.854      7.609     11.269
REMARK INTER + INTRA:          -6.984
REMARK INTER:                  -6.710
REMARK INTRA:                  -0.274
REMARK UNBOUND:                -0.274
REMARK SMILES O=c1c(-c2ccc(O)cc2)coc2cc(O)cc(O)c12
REMARK SMILES IDX 12 1 1 2 20 3 3 4 13 5 2 6 18 7 11 8 14 9 17 10 15 11 4 12
REMARK SMILES IDX 5 13 10 14 6 15 9 16 7 17 8 18 19 20 16 22
REMARK H PARENT 8 19 19 21 16 23
REMARK Flexibility Score: inf
ROOT
ATOM      1  O   UNL     1      39.475 -25.035 -17.997  1.00  0.00    -0.463 OA
ATOM      2  O   UNL     1      38.716 -22.570 -14.836  1.00  0.00    -0.288 OA
ATOM      3  C   UNL     1      39.468 -22.798 -17.056  1.00  0.00     0.107 A 
ATOM      4  C   UNL     1      38.654 -24.777 -15.726  1.00  0.00     0.065 A 
ATOM      5  C   UNL     1      39.718 -23.689 -18.099  1.00  0.00     0.145 A 
ATOM      6  C   UNL     1      38.922 -23.314 -15.787  1.00  0.00     0.204 A 
ATOM      7  C   UNL     1      39.735 -21.436 -17.216  1.00  0.00     0.134 A 
ATOM      8  C   UNL     1      38.947 -25.501 -16.818  1.00  0.00     0.208 A 
ATOM      9  C   UNL     1      40.238 -23.224 -19.307  1.00  0.00     0.094 A 
ATOM     10  C   UNL     1      40.255 -20.973 -18.425  1.00  0.00     0.093 A 
ATOM     11  C   UNL     1      40.506 -21.864 -19.469  1.00  0.00     0.123 A 
ENDROOT
BRANCH   4  12
ATOM     12  C   UNL     1      38.074 -25.415 -14.533  1.00  0.00    -0.011 A 
ATOM     13  C   UNL     1      38.877 -25.685 -13.423  1.00  0.00     0.013 A 
ATOM     14  C   UNL     1      36.719 -25.750 -14.507  1.00  0.00     0.013 A 
ATOM     15  C   UNL     1      38.327 -26.288 -12.292  1.00  0.00     0.047 A 
ATOM     16  C   UNL     1      36.169 -26.353 -13.376  1.00  0.00     0.047 A 
ATOM     17  C   UNL     1      36.973 -26.622 -12.269  1.00  0.00     0.115 A 
BRANCH  17  18
ATOM     18  O   UNL     1      36.436 -27.211 -11.165  1.00  0.00    -0.508 OA
ATOM     19  H   UNL     1      36.662 -28.157 -11.172  1.00  0.00     0.293 HD
ENDBRANCH  17  18
ENDBRANCH   4  12
BRANCH   7  20
ATOM     20  O   UNL     1      39.508 -20.523 -16.231  1.00  0.00    -0.507 OA
ATOM     21  H   UNL     1      38.643 -20.672 -15.819  1.00  0.00     0.293 HD
ENDBRANCH   7  20
BRANCH  11  22
ATOM     22  O   UNL     1      41.014 -21.407 -20.646  1.00  0.00    -0.508 OA
ATOM     23  H   UNL     1      41.798 -21.935 -20.877  1.00  0.00     0.293 HD
ENDBRANCH  11  22
TORSDOF 4

ENDMDL
