REMARK SMILES O=c1c(-c2ccc(O)cc2)coc2cc(O)cc(O)c12
REMARK SMILES IDX 12 1 1 2 20 3 3 4 13 5 2 6 18 7 11 8 14 9 17 10 15 11 4 12
REMARK SMILES IDX 5 13 10 14 6 15 9 16 7 17 8 18 19 20 16 22
REMARK H PARENT 8 19 19 21 16 23
REMARK Flexibility Score: inf
ROOT
ATOM      1  O   UNL     1       1.205   2.034  -0.019  1.00  0.00    -0.463 OA
ATOM      2  O   UNL     1      -0.086  -1.836  -0.069  1.00  0.00    -0.288 OA
ATOM      3  C   UNL     1       1.728  -0.336  -0.011  1.00  0.00     0.107 A 
ATOM      4  C   UNL     1      -0.657   0.475  -0.027  1.00  0.00     0.065 A 
ATOM      5  C   UNL     1       2.111   1.005  -0.006  1.00  0.00     0.145 A 
ATOM      6  C   UNL     1       0.292  -0.672  -0.034  1.00  0.00     0.204 A 
ATOM      7  C   UNL     1       2.696  -1.343   0.002  1.00  0.00     0.134 A 
ATOM      8  C   UNL     1      -0.130   1.709  -0.019  1.00  0.00     0.208 A 
ATOM      9  C   UNL     1       3.464   1.346   0.011  1.00  0.00     0.094 A 
ATOM     10  C   UNL     1       4.048  -1.000   0.019  1.00  0.00     0.093 A 
ATOM     11  C   UNL     1       4.432   0.341   0.024  1.00  0.00     0.123 A 
ENDROOT
BRANCH   4  12
ATOM     12  C   UNL     1      -2.116   0.279  -0.009  1.00  0.00    -0.011 A 
ATOM     13  C   UNL     1      -2.827   0.201  -1.208  1.00  0.00     0.013 A 
ATOM     14  C   UNL     1      -2.793   0.170   1.207  1.00  0.00     0.013 A 
ATOM     15  C   UNL     1      -4.209   0.014  -1.191  1.00  0.00     0.047 A 
ATOM     16  C   UNL     1      -4.175  -0.017   1.224  1.00  0.00     0.047 A 
ATOM     17  C   UNL     1      -4.883  -0.095   0.025  1.00  0.00     0.115 A 
BRANCH  17  18
ATOM     18  O   UNL     1      -6.232  -0.277   0.042  1.00  0.00    -0.508 OA
ATOM     19  H   UNL     1      -6.557  -0.307  -0.875  1.00  0.00     0.293 HD
ENDBRANCH  17  18
ENDBRANCH   4  12
BRANCH   7  20
ATOM     20  O   UNL     1       2.377  -2.668  -0.001  1.00  0.00    -0.507 OA
ATOM     21  H   UNL     1       1.415  -2.788   0.009  1.00  0.00     0.293 HD
ENDBRANCH   7  20
BRANCH  11  22
ATOM     22  O   UNL     1       5.753   0.670   0.040  1.00  0.00    -0.508 OA
ATOM     23  H   UNL     1       6.281  -0.147   0.047  1.00  0.00     0.293 HD
ENDBRANCH  11  22
TORSDOF 4

