MODEL 1
REMARK VINA RESULT:      -6.9      0.000      0.000
REMARK  4 active torsions:
REMARK  status: ('A' for Active; 'I' for Inactive)
REMARK    1  A    between atoms: O_2  and  C_11 
REMARK    2  A    between atoms: O_4  and  C_15 
REMARK    3  A    between atoms: O_5  and  C_20 
REMARK    4  A    between atoms: C_7  and  C_10 
ROOT
HETATM    1  O   UNK     0      20.800 -24.809 -21.007  0.00  0.00    -0.321 OA
HETATM    2  O   UNK     0      19.601 -28.605 -20.115  0.00  0.00    -0.286 OA
HETATM    3  C   UNK     0      21.058 -27.202 -21.320  0.00  0.00     0.082 A 
HETATM    4  C   UNK     0      19.338 -26.270 -19.733  0.00  0.00     0.048 A 
HETATM    5  C   UNK     0      21.418 -25.883 -21.594  0.00  0.00     0.094 A 
HETATM    6  C   UNK     0      19.967 -27.464 -20.362  0.00  0.00     0.200 A 
HETATM    7  C   UNK     0      21.722 -28.258 -21.949  0.00  0.00     0.085 A 
HETATM    8  C   UNK     0      19.800 -25.065 -20.101  0.00  0.00     0.159 A 
HETATM    9  C   UNK     0      22.444 -25.612 -22.501  0.00  0.00     0.074 A 
HETATM   10  C   UNK     0      22.748 -27.985 -22.855  0.00  0.00     0.074 A 
HETATM   11  C   UNK     0      23.109 -26.666 -23.130  0.00  0.00     0.071 A 
ENDROOT
BRANCH   4  12
HETATM   12  C   UNK     0      18.266 -26.392 -18.731  0.00  0.00    -0.020 A 
HETATM   13  C   UNK     0      18.246 -27.478 -17.855  0.00  0.00     0.015 A 
HETATM   14  C   UNK     0      17.231 -27.593 -16.905  0.00  0.00     0.037 A 
HETATM   15  C   UNK     0      16.233 -26.622 -16.830  0.00  0.00     0.065 A 
HETATM   16  C   UNK     0      16.251 -25.535 -17.704  0.00  0.00     0.037 A 
HETATM   17  C   UNK     0      17.266 -25.421 -18.654  0.00  0.00     0.015 A 
BRANCH  15  18
HETATM   18  O   UNK     0      15.243 -26.734 -15.903  0.00  0.00    -0.361 OA
HETATM   19  H   UNK     0      14.421 -26.368 -16.273  0.00  0.00     0.217 HD
ENDBRANCH  15  18
ENDBRANCH   4  12
BRANCH   7  20
HETATM   20  O   UNK     0      21.411 -29.564 -21.717  0.00  0.00    -0.360 OA
HETATM   21  H   UNK     0      21.898 -30.144 -22.322  0.00  0.00     0.217 HD
ENDBRANCH   7  20
BRANCH  11  22
HETATM   22  O   UNK     0      24.110 -26.405 -24.015  0.00  0.00    -0.361 OA
HETATM   23  H   UNK     0      24.799 -25.885 -23.567  0.00  0.00     0.217 HD
ENDBRANCH  11  22
TORSDOF 4
ENDMDL
MODEL 2
REMARK VINA RESULT:      -6.7      3.202      4.796
REMARK  4 active torsions:
REMARK  status: ('A' for Active; 'I' for Inactive)
REMARK    1  A    between atoms: O_2  and  C_11 
REMARK    2  A    between atoms: O_4  and  C_15 
REMARK    3  A    between atoms: O_5  and  C_20 
REMARK    4  A    between atoms: C_7  and  C_10 
ROOT
HETATM    1  O   UNK     0      19.952 -28.774 -20.757  0.00  0.00    -0.321 OA
HETATM    2  O   UNK     0      17.644 -27.796 -17.538  0.00  0.00    -0.286 OA
HETATM    3  C   UNK     0      18.983 -27.065 -19.331  0.00  0.00     0.082 A 
HETATM    4  C   UNK     0      18.529 -29.511 -18.933  0.00  0.00     0.048 A 
HETATM    5  C   UNK     0      19.769 -27.459 -20.414  0.00  0.00     0.094 A 
HETATM    6  C   UNK     0      18.320 -28.098 -18.514  0.00  0.00     0.200 A 
HETATM    7  C   UNK     0      18.832 -25.709 -19.028  0.00  0.00     0.085 A 
HETATM    8  C   UNK     0      19.313 -29.726 -20.001  0.00  0.00     0.159 A 
HETATM    9  C   UNK     0      20.410 -26.499 -21.199  0.00  0.00     0.074 A 
HETATM   10  C   UNK     0      19.474 -24.752 -19.814  0.00  0.00     0.074 A 
HETATM   11  C   UNK     0      20.260 -25.145 -20.897  0.00  0.00     0.071 A 
ENDROOT
BRANCH   4  12
HETATM   12  C   UNK     0      17.893 -30.635 -18.227  0.00  0.00    -0.020 A 
HETATM   13  C   UNK     0      16.501 -30.711 -18.141  0.00  0.00     0.015 A 
HETATM   14  C   UNK     0      15.898 -31.777 -17.474  0.00  0.00     0.037 A 
HETATM   15  C   UNK     0      16.685 -32.769 -16.890  0.00  0.00     0.065 A 
HETATM   16  C   UNK     0      18.076 -32.696 -16.975  0.00  0.00     0.037 A 
HETATM   17  C   UNK     0      18.678 -31.630 -17.643  0.00  0.00     0.015 A 
BRANCH  15  18
HETATM   18  O   UNK     0      16.096 -33.810 -16.239  0.00  0.00    -0.361 OA
HETATM   19  H   UNK     0      16.525 -33.923 -15.374  0.00  0.00     0.217 HD
ENDBRANCH  15  18
ENDBRANCH   4  12
BRANCH   7  20
HETATM   20  O   UNK     0      18.076 -25.271 -17.983  0.00  0.00    -0.360 OA
HETATM   21  H   UNK     0      17.225 -25.735 -17.959  0.00  0.00     0.217 HD
ENDBRANCH   7  20
BRANCH  11  22
HETATM   22  O   UNK     0      20.885 -24.206 -21.660  0.00  0.00    -0.361 OA
HETATM   23  H   UNK     0      20.327 -24.006 -22.432  0.00  0.00     0.217 HD
ENDBRANCH  11  22
TORSDOF 4
ENDMDL
MODEL 3
REMARK VINA RESULT:      -6.6     28.031     29.897
REMARK  4 active torsions:
REMARK  status: ('A' for Active; 'I' for Inactive)
REMARK    1  A    between atoms: O_2  and  C_11 
REMARK    2  A    between atoms: O_4  and  C_15 
REMARK    3  A    between atoms: O_5  and  C_20 
REMARK    4  A    between atoms: C_7  and  C_10 
ROOT
HETATM    1  O   UNK     0      48.596 -19.376 -17.946  0.00  0.00    -0.321 OA
HETATM    2  O   UNK     0      47.300 -17.617 -21.391  0.00  0.00    -0.286 OA
HETATM    3  C   UNK     0      47.850 -17.384 -19.114  0.00  0.00     0.082 A 
HETATM    4  C   UNK     0      48.073 -19.590 -20.308  0.00  0.00     0.048 A 
HETATM    5  C   UNK     0      48.287 -18.040 -17.964  0.00  0.00     0.094 A 
HETATM    6  C   UNK     0      47.708 -18.149 -20.367  0.00  0.00     0.200 A 
HETATM    7  C   UNK     0      47.547 -16.020 -19.073  0.00  0.00     0.085 A 
HETATM    8  C   UNK     0      48.481 -20.074 -19.124  0.00  0.00     0.159 A 
HETATM    9  C   UNK     0      48.424 -17.337 -16.766  0.00  0.00     0.074 A 
HETATM   10  C   UNK     0      47.685 -15.319 -17.874  0.00  0.00     0.074 A 
HETATM   11  C   UNK     0      48.123 -15.975 -16.724  0.00  0.00     0.071 A 
ENDROOT
BRANCH   4  12
HETATM   12  C   UNK     0      48.015 -20.458 -21.496  0.00  0.00    -0.020 A 
HETATM   13  C   UNK     0      46.859 -21.190 -21.772  0.00  0.00     0.015 A 
HETATM   14  C   UNK     0      46.803 -22.012 -22.898  0.00  0.00     0.037 A 
HETATM   15  C   UNK     0      47.904 -22.103 -23.749  0.00  0.00     0.065 A 
HETATM   16  C   UNK     0      49.060 -21.372 -23.476  0.00  0.00     0.037 A 
HETATM   17  C   UNK     0      49.115 -20.551 -22.350  0.00  0.00     0.015 A 
BRANCH  15  18
HETATM   18  O   UNK     0      47.849 -22.905 -24.849  0.00  0.00    -0.361 OA
HETATM   19  H   UNK     0      46.996 -23.373 -24.855  0.00  0.00     0.217 HD
ENDBRANCH  15  18
ENDBRANCH   4  12
BRANCH   7  20
HETATM   20  O   UNK     0      47.118 -15.330 -20.166  0.00  0.00    -0.360 OA
HETATM   21  H   UNK     0      47.772 -15.379 -20.880  0.00  0.00     0.217 HD
ENDBRANCH   7  20
BRANCH  11  22
HETATM   22  O   UNK     0      48.255 -15.287 -15.557  0.00  0.00    -0.361 OA
HETATM   23  H   UNK     0      48.375 -15.921 -14.829  0.00  0.00     0.217 HD
ENDBRANCH  11  22
TORSDOF 4
ENDMDL
MODEL 4
REMARK VINA RESULT:      -6.6     27.430     29.535
REMARK  4 active torsions:
REMARK  status: ('A' for Active; 'I' for Inactive)
REMARK    1  A    between atoms: O_2  and  C_11 
REMARK    2  A    between atoms: O_4  and  C_15 
REMARK    3  A    between atoms: O_5  and  C_20 
REMARK    4  A    between atoms: C_7  and  C_10 
ROOT
HETATM    1  O   UNK     0      46.547 -20.981 -20.292  0.00  0.00    -0.321 OA
HETATM    2  O   UNK     0      49.265 -18.145 -21.393  0.00  0.00    -0.286 OA
HETATM    3  C   UNK     0      47.914 -19.968 -22.022  0.00  0.00     0.082 A 
HETATM    4  C   UNK     0      47.908 -19.069 -19.669  0.00  0.00     0.048 A 
HETATM    5  C   UNK     0      46.994 -20.921 -21.587  0.00  0.00     0.094 A 
HETATM    6  C   UNK     0      48.435 -18.981 -21.058  0.00  0.00     0.200 A 
HETATM    7  C   UNK     0      48.335 -19.954 -23.355  0.00  0.00     0.085 A 
HETATM    8  C   UNK     0      47.023 -20.044 -19.408  0.00  0.00     0.159 A 
HETATM    9  C   UNK     0      46.491 -21.867 -22.480  0.00  0.00     0.074 A 
HETATM   10  C   UNK     0      47.830 -20.902 -24.246  0.00  0.00     0.074 A 
HETATM   11  C   UNK     0      46.910 -21.856 -23.811  0.00  0.00     0.071 A 
ENDROOT
BRANCH   4  12
HETATM   12  C   UNK     0      48.316 -18.121 -18.619  0.00  0.00    -0.020 A 
HETATM   13  C   UNK     0      49.463 -18.367 -17.861  0.00  0.00     0.015 A 
HETATM   14  C   UNK     0      49.850 -17.468 -16.867  0.00  0.00     0.037 A 
HETATM   15  C   UNK     0      49.091 -16.323 -16.628  0.00  0.00     0.065 A 
HETATM   16  C   UNK     0      47.945 -16.075 -17.384  0.00  0.00     0.037 A 
HETATM   17  C   UNK     0      47.558 -16.974 -18.378  0.00  0.00     0.015 A 
BRANCH  15  18
HETATM   18  O   UNK     0      49.469 -15.446 -15.658  0.00  0.00    -0.361 OA
HETATM   19  H   UNK     0      50.342 -15.708 -15.320  0.00  0.00     0.217 HD
ENDBRANCH  15  18
ENDBRANCH   4  12
BRANCH   7  20
HETATM   20  O   UNK     0      49.230 -19.045 -23.833  0.00  0.00    -0.360 OA
HETATM   21  H   UNK     0      49.189 -18.224 -23.320  0.00  0.00     0.217 HD
ENDBRANCH   7  20
BRANCH  11  22
HETATM   22  O   UNK     0      46.422 -22.778 -24.686  0.00  0.00    -0.361 OA
HETATM   23  H   UNK     0      46.513 -22.432 -25.591  0.00  0.00     0.217 HD
ENDBRANCH  11  22
TORSDOF 4
ENDMDL
MODEL 5
REMARK VINA RESULT:      -6.5     14.996     18.709
REMARK  4 active torsions:
REMARK  status: ('A' for Active; 'I' for Inactive)
REMARK    1  A    between atoms: O_2  and  C_11 
REMARK    2  A    between atoms: O_4  and  C_15 
REMARK    3  A    between atoms: O_5  and  C_20 
REMARK    4  A    between atoms: C_7  and  C_10 
ROOT
HETATM    1  O   UNK     0      31.019 -21.026 -29.453  0.00  0.00    -0.321 OA
HETATM    2  O   UNK     0      32.413 -17.291 -30.317  0.00  0.00    -0.286 OA
HETATM    3  C   UNK     0      30.564 -18.734 -30.109  0.00  0.00     0.082 A 
HETATM    4  C   UNK     0      32.910 -19.513 -29.622  0.00  0.00     0.048 A 
HETATM    5  C   UNK     0      30.147 -20.032 -29.813  0.00  0.00     0.094 A 
HETATM    6  C   UNK     0      32.001 -18.409 -30.037  0.00  0.00     0.200 A 
HETATM    7  C   UNK     0      29.630 -17.760 -30.473  0.00  0.00     0.085 A 
HETATM    8  C   UNK     0      32.352 -20.706 -29.368  0.00  0.00     0.159 A 
HETATM    9  C   UNK     0      28.793 -20.363 -29.880  0.00  0.00     0.074 A 
HETATM   10  C   UNK     0      28.277 -18.095 -30.538  0.00  0.00     0.074 A 
HETATM   11  C   UNK     0      27.859 -19.392 -30.242  0.00  0.00     0.071 A 
ENDROOT
BRANCH   4  12
HETATM   12  C   UNK     0      34.361 -19.312 -29.473  0.00  0.00    -0.020 A 
HETATM   13  C   UNK     0      34.857 -18.552 -28.412  0.00  0.00     0.015 A 
HETATM   14  C   UNK     0      36.232 -18.364 -28.269  0.00  0.00     0.037 A 
HETATM   15  C   UNK     0      37.113 -18.934 -29.188  0.00  0.00     0.065 A 
HETATM   16  C   UNK     0      36.620 -19.694 -30.248  0.00  0.00     0.037 A 
HETATM   17  C   UNK     0      35.245 -19.882 -30.390  0.00  0.00     0.015 A 
BRANCH  15  18
HETATM   18  O   UNK     0      38.455 -18.749 -29.048  0.00  0.00    -0.361 OA
HETATM   19  H   UNK     0      38.680 -17.846 -29.329  0.00  0.00     0.217 HD
ENDBRANCH  15  18
ENDBRANCH   4  12
BRANCH   7  20
HETATM   20  O   UNK     0      29.984 -16.479 -30.771  0.00  0.00    -0.360 OA
HETATM   21  H   UNK     0      29.219 -15.981 -31.097  0.00  0.00     0.217 HD
ENDBRANCH   7  20
BRANCH  11  22
HETATM   22  O   UNK     0      26.537 -19.711 -30.308  0.00  0.00    -0.361 OA
HETATM   23  H   UNK     0      26.119 -19.181 -31.009  0.00  0.00     0.217 HD
ENDBRANCH  11  22
TORSDOF 4
ENDMDL
MODEL 6
REMARK VINA RESULT:      -6.5     14.589     17.777
REMARK  4 active torsions:
REMARK  status: ('A' for Active; 'I' for Inactive)
REMARK    1  A    between atoms: O_2  and  C_11 
REMARK    2  A    between atoms: O_4  and  C_15 
REMARK    3  A    between atoms: O_5  and  C_20 
REMARK    4  A    between atoms: C_7  and  C_10 
ROOT
HETATM    1  O   UNK     0      33.510 -18.169 -27.990  0.00  0.00    -0.321 OA
HETATM    2  O   UNK     0      32.536 -20.305 -31.327  0.00  0.00    -0.286 OA
HETATM    3  C   UNK     0      34.223 -19.460 -29.918  0.00  0.00     0.082 A 
HETATM    4  C   UNK     0      31.780 -19.088 -29.425  0.00  0.00     0.048 A 
HETATM    5  C   UNK     0      34.496 -18.712 -28.773  0.00  0.00     0.094 A 
HETATM    6  C   UNK     0      32.819 -19.679 -30.313  0.00  0.00     0.200 A 
HETATM    7  C   UNK     0      35.268 -19.990 -30.678  0.00  0.00     0.085 A 
HETATM    8  C   UNK     0      32.206 -18.397 -28.357  0.00  0.00     0.159 A 
HETATM    9  C   UNK     0      35.817 -18.489 -28.382  0.00  0.00     0.074 A 
HETATM   10  C   UNK     0      36.588 -19.766 -30.285  0.00  0.00     0.074 A 
HETATM   11  C   UNK     0      36.863 -19.018 -29.140  0.00  0.00     0.071 A 
ENDROOT
BRANCH   4  12
HETATM   12  C   UNK     0      30.342 -19.265 -29.683  0.00  0.00    -0.020 A 
HETATM   13  C   UNK     0      29.725 -20.487 -29.408  0.00  0.00     0.015 A 
HETATM   14  C   UNK     0      28.362 -20.654 -29.652  0.00  0.00     0.037 A 
HETATM   15  C   UNK     0      27.613 -19.599 -30.172  0.00  0.00     0.065 A 
HETATM   16  C   UNK     0      28.226 -18.377 -30.447  0.00  0.00     0.037 A 
HETATM   17  C   UNK     0      29.589 -18.210 -30.204  0.00  0.00     0.015 A 
BRANCH  15  18
HETATM   18  O   UNK     0      26.282 -19.762 -30.409  0.00  0.00    -0.361 OA
HETATM   19  H   UNK     0      26.150 -19.941 -31.356  0.00  0.00     0.217 HD
ENDBRANCH  15  18
ENDBRANCH   4  12
BRANCH   7  20
HETATM   20  O   UNK     0      35.057 -20.728 -31.803  0.00  0.00    -0.360 OA
HETATM   21  H   UNK     0      35.216 -20.195 -32.597  0.00  0.00     0.217 HD
ENDBRANCH   7  20
BRANCH  11  22
HETATM   22  O   UNK     0      38.153 -18.801 -28.762  0.00  0.00    -0.361 OA
HETATM   23  H   UNK     0      38.741 -19.044 -29.498  0.00  0.00     0.217 HD
ENDBRANCH  11  22
TORSDOF 4
ENDMDL
MODEL 7
REMARK VINA RESULT:      -6.4     27.895     29.841
REMARK  4 active torsions:
REMARK  status: ('A' for Active; 'I' for Inactive)
REMARK    1  A    between atoms: O_2  and  C_11 
REMARK    2  A    between atoms: O_4  and  C_15 
REMARK    3  A    between atoms: O_5  and  C_20 
REMARK    4  A    between atoms: C_7  and  C_10 
ROOT
HETATM    1  O   UNK     0      47.559 -16.158 -20.113  0.00  0.00    -0.321 OA
HETATM    2  O   UNK     0      48.219 -19.863 -18.537  0.00  0.00    -0.286 OA
HETATM    3  C   UNK     0      47.949 -17.554 -18.166  0.00  0.00     0.082 A 
HETATM    4  C   UNK     0      47.790 -18.548 -20.475  0.00  0.00     0.048 A 
HETATM    5  C   UNK     0      47.731 -16.312 -18.761  0.00  0.00     0.094 A 
HETATM    6  C   UNK     0      48.001 -18.758 -19.017  0.00  0.00     0.200 A 
HETATM    7  C   UNK     0      48.119 -17.651 -16.782  0.00  0.00     0.085 A 
HETATM    8  C   UNK     0      47.589 -17.289 -20.893  0.00  0.00     0.159 A 
HETATM    9  C   UNK     0      47.683 -15.159 -17.976  0.00  0.00     0.074 A 
HETATM   10  C   UNK     0      48.069 -16.497 -16.000  0.00  0.00     0.074 A 
HETATM   11  C   UNK     0      47.852 -15.254 -16.594  0.00  0.00     0.071 A 
ENDROOT
BRANCH   4  12
HETATM   12  C   UNK     0      47.778 -19.669 -21.430  0.00  0.00    -0.020 A 
HETATM   13  C   UNK     0      48.943 -20.016 -22.117  0.00  0.00     0.015 A 
HETATM   14  C   UNK     0      48.933 -21.078 -23.020  0.00  0.00     0.037 A 
HETATM   15  C   UNK     0      47.757 -21.795 -23.239  0.00  0.00     0.065 A 
HETATM   16  C   UNK     0      46.592 -21.451 -22.554  0.00  0.00     0.037 A 
HETATM   17  C   UNK     0      46.603 -20.389 -21.651  0.00  0.00     0.015 A 
BRANCH  15  18
HETATM   18  O   UNK     0      47.747 -22.833 -24.121  0.00  0.00    -0.361 OA
HETATM   19  H   UNK     0      48.288 -22.595 -24.893  0.00  0.00     0.217 HD
ENDBRANCH  15  18
ENDBRANCH   4  12
BRANCH   7  20
HETATM   20  O   UNK     0      48.333 -18.838 -16.150  0.00  0.00    -0.360 OA
HETATM   21  H   UNK     0      47.708 -19.510 -16.464  0.00  0.00     0.217 HD
ENDBRANCH   7  20
BRANCH  11  22
HETATM   22  O   UNK     0      47.805 -14.131 -15.826  0.00  0.00    -0.361 OA
HETATM   23  H   UNK     0      47.519 -13.383 -16.378  0.00  0.00     0.217 HD
ENDBRANCH  11  22
TORSDOF 4
ENDMDL
MODEL 8
REMARK VINA RESULT:      -6.4     14.336     18.077
REMARK  4 active torsions:
REMARK  status: ('A' for Active; 'I' for Inactive)
REMARK    1  A    between atoms: O_2  and  C_11 
REMARK    2  A    between atoms: O_4  and  C_15 
REMARK    3  A    between atoms: O_5  and  C_20 
REMARK    4  A    between atoms: C_7  and  C_10 
ROOT
HETATM    1  O   UNK     0      30.578 -17.872 -30.430  0.00  0.00    -0.321 OA
HETATM    2  O   UNK     0      32.210 -21.339 -29.029  0.00  0.00    -0.286 OA
HETATM    3  C   UNK     0      30.288 -20.182 -29.746  0.00  0.00     0.082 A 
HETATM    4  C   UNK     0      32.559 -19.092 -29.735  0.00  0.00     0.048 A 
HETATM    5  C   UNK     0      29.784 -18.969 -30.214  0.00  0.00     0.094 A 
HETATM    6  C   UNK     0      31.732 -20.300 -29.468  0.00  0.00     0.200 A 
HETATM    7  C   UNK     0      29.432 -21.268 -29.544  0.00  0.00     0.085 A 
HETATM    8  C   UNK     0      31.924 -18.000 -30.186  0.00  0.00     0.159 A 
HETATM    9  C   UNK     0      28.421 -18.833 -30.480  0.00  0.00     0.074 A 
HETATM   10  C   UNK     0      28.069 -21.129 -29.811  0.00  0.00     0.074 A 
HETATM   11  C   UNK     0      27.565 -19.916 -30.278  0.00  0.00     0.071 A 
ENDROOT
BRANCH   4  12
HETATM   12  C   UNK     0      34.018 -19.087 -29.536  0.00  0.00    -0.020 A 
HETATM   13  C   UNK     0      34.574 -18.419 -28.443  0.00  0.00     0.015 A 
HETATM   14  C   UNK     0      35.955 -18.416 -28.255  0.00  0.00     0.037 A 
HETATM   15  C   UNK     0      36.784 -19.079 -29.159  0.00  0.00     0.065 A 
HETATM   16  C   UNK     0      36.232 -19.747 -30.251  0.00  0.00     0.037 A 
HETATM   17  C   UNK     0      34.850 -19.750 -30.440  0.00  0.00     0.015 A 
BRANCH  15  18
HETATM   18  O   UNK     0      38.133 -19.075 -28.974  0.00  0.00    -0.361 OA
HETATM   19  H   UNK     0      38.361 -18.384 -28.328  0.00  0.00     0.217 HD
ENDBRANCH  15  18
ENDBRANCH   4  12
BRANCH   7  20
HETATM   20  O   UNK     0      29.871 -22.475 -29.090  0.00  0.00    -0.360 OA
HETATM   21  H   UNK     0      29.484 -22.677 -28.225  0.00  0.00     0.217 HD
ENDBRANCH   7  20
BRANCH  11  22
HETATM   22  O   UNK     0      26.234 -19.787 -30.536  0.00  0.00    -0.361 OA
HETATM   23  H   UNK     0      26.004 -20.351 -31.294  0.00  0.00     0.217 HD
ENDBRANCH  11  22
TORSDOF 4
ENDMDL
MODEL 9
REMARK VINA RESULT:      -6.4     13.401     16.346
REMARK  4 active torsions:
REMARK  status: ('A' for Active; 'I' for Inactive)
REMARK    1  A    between atoms: O_2  and  C_11 
REMARK    2  A    between atoms: O_4  and  C_15 
REMARK    3  A    between atoms: O_5  and  C_20 
REMARK    4  A    between atoms: C_7  and  C_10 
ROOT
HETATM    1  O   UNK     0      27.494 -18.713 -30.121  0.00  0.00    -0.321 OA
HETATM    2  O   UNK     0      30.411 -21.524 -29.629  0.00  0.00    -0.286 OA
HETATM    3  C   UNK     0      28.160 -21.047 -30.129  0.00  0.00     0.082 A 
HETATM    4  C   UNK     0      29.824 -19.216 -29.657  0.00  0.00     0.048 A 
HETATM    5  C   UNK     0      27.202 -20.044 -30.274  0.00  0.00     0.094 A 
HETATM    6  C   UNK     0      29.546 -20.672 -29.794  0.00  0.00     0.200 A 
HETATM    7  C   UNK     0      27.804 -22.388 -30.296  0.00  0.00     0.085 A 
HETATM    8  C   UNK     0      28.794 -18.374 -29.830  0.00  0.00     0.159 A 
HETATM    9  C   UNK     0      25.883 -20.375 -30.586  0.00  0.00     0.074 A 
HETATM   10  C   UNK     0      26.485 -22.717 -30.608  0.00  0.00     0.074 A 
HETATM   11  C   UNK     0      25.526 -21.714 -30.753  0.00  0.00     0.071 A 
ENDROOT
BRANCH   4  12
HETATM   12  C   UNK     0      31.174 -18.705 -29.363  0.00  0.00    -0.020 A 
HETATM   13  C   UNK     0      31.968 -18.195 -30.392  0.00  0.00     0.015 A 
HETATM   14  C   UNK     0      33.246 -17.709 -30.114  0.00  0.00     0.037 A 
HETATM   15  C   UNK     0      33.732 -17.734 -28.807  0.00  0.00     0.065 A 
HETATM   16  C   UNK     0      32.940 -18.242 -27.778  0.00  0.00     0.037 A 
HETATM   17  C   UNK     0      31.662 -18.728 -28.056  0.00  0.00     0.015 A 
BRANCH  15  18
HETATM   18  O   UNK     0      34.979 -17.259 -28.536  0.00  0.00    -0.361 OA
HETATM   19  H   UNK     0      35.635 -17.831 -28.970  0.00  0.00     0.217 HD
ENDBRANCH  15  18
ENDBRANCH   4  12
BRANCH   7  20
HETATM   20  O   UNK     0      28.699 -23.406 -30.166  0.00  0.00    -0.360 OA
HETATM   21  H   UNK     0      28.838 -23.623 -29.231  0.00  0.00     0.217 HD
ENDBRANCH   7  20
BRANCH  11  22
HETATM   22  O   UNK     0      24.240 -22.042 -31.057  0.00  0.00    -0.361 OA
HETATM   23  H   UNK     0      24.169 -22.180 -32.017  0.00  0.00     0.217 HD
ENDBRANCH  11  22
TORSDOF 4
ENDMDL
MODEL 10
REMARK VINA RESULT:      -6.3      3.434      6.732
REMARK  4 active torsions:
REMARK  status: ('A' for Active; 'I' for Inactive)
REMARK    1  A    between atoms: O_2  and  C_11 
REMARK    2  A    between atoms: O_4  and  C_15 
REMARK    3  A    between atoms: O_5  and  C_20 
REMARK    4  A    between atoms: C_7  and  C_10 
ROOT
HETATM    1  O   UNK     0      15.747 -29.668 -18.469  0.00  0.00    -0.321 OA
HETATM    2  O   UNK     0      19.825 -29.562 -18.424  0.00  0.00    -0.286 OA
HETATM    3  C   UNK     0      17.853 -30.768 -17.974  0.00  0.00     0.082 A 
HETATM    4  C   UNK     0      17.790 -28.457 -18.975  0.00  0.00     0.048 A 
HETATM    5  C   UNK     0      16.459 -30.743 -18.003  0.00  0.00     0.094 A 
HETATM    6  C   UNK     0      18.602 -29.593 -18.459  0.00  0.00     0.200 A 
HETATM    7  C   UNK     0      18.527 -31.891 -17.486  0.00  0.00     0.085 A 
HETATM    8  C   UNK     0      16.455 -28.588 -18.939  0.00  0.00     0.159 A 
HETATM    9  C   UNK     0      15.731 -31.841 -17.545  0.00  0.00     0.074 A 
HETATM   10  C   UNK     0      17.796 -32.987 -17.029  0.00  0.00     0.074 A 
HETATM   11  C   UNK     0      16.401 -32.964 -17.058  0.00  0.00     0.071 A 
ENDROOT
BRANCH   4  12
HETATM   12  C   UNK     0      18.412 -27.241 -19.525  0.00  0.00    -0.020 A 
HETATM   13  C   UNK     0      18.625 -26.131 -18.705  0.00  0.00     0.015 A 
HETATM   14  C   UNK     0      19.215 -24.980 -19.225  0.00  0.00     0.037 A 
HETATM   15  C   UNK     0      19.593 -24.935 -20.566  0.00  0.00     0.065 A 
HETATM   16  C   UNK     0      19.383 -26.043 -21.387  0.00  0.00     0.037 A 
HETATM   17  C   UNK     0      18.792 -27.194 -20.867  0.00  0.00     0.015 A 
BRANCH  15  18
HETATM   18  O   UNK     0      20.170 -23.811 -21.073  0.00  0.00    -0.361 OA
HETATM   19  H   UNK     0      19.473 -23.226 -21.416  0.00  0.00     0.217 HD
ENDBRANCH  15  18
ENDBRANCH   4  12
BRANCH   7  20
HETATM   20  O   UNK     0      19.886 -31.967 -17.437  0.00  0.00    -0.360 OA
HETATM   21  H   UNK     0      20.190 -32.057 -16.520  0.00  0.00     0.217 HD
ENDBRANCH   7  20
BRANCH  11  22
HETATM   22  O   UNK     0      15.694 -34.037 -16.609  0.00  0.00    -0.361 OA
HETATM   23  H   UNK     0      16.316 -34.736 -16.343  0.00  0.00     0.217 HD
ENDBRANCH  11  22
TORSDOF 4
ENDMDL
MODEL 11
REMARK VINA RESULT:      -6.3      1.971      3.140
REMARK  4 active torsions:
REMARK  status: ('A' for Active; 'I' for Inactive)
REMARK    1  A    between atoms: O_2  and  C_11 
REMARK    2  A    between atoms: O_4  and  C_15 
REMARK    3  A    between atoms: O_5  and  C_20 
REMARK    4  A    between atoms: C_7  and  C_10 
ROOT
HETATM    1  O   UNK     0      21.611 -27.515 -23.673  0.00  0.00    -0.321 OA
HETATM    2  O   UNK     0      23.015 -26.179 -20.083  0.00  0.00    -0.286 OA
HETATM    3  C   UNK     0      23.494 -26.881 -22.279  0.00  0.00     0.082 A 
HETATM    4  C   UNK     0      21.129 -26.741 -21.422  0.00  0.00     0.048 A 
HETATM    5  C   UNK     0      22.958 -27.345 -23.480  0.00  0.00     0.094 A 
HETATM    6  C   UNK     0      22.584 -26.561 -21.163  0.00  0.00     0.200 A 
HETATM    7  C   UNK     0      24.876 -26.728 -22.138  0.00  0.00     0.085 A 
HETATM    8  C   UNK     0      20.771 -27.193 -22.634  0.00  0.00     0.159 A 
HETATM    9  C   UNK     0      23.800 -27.658 -24.547  0.00  0.00     0.074 A 
HETATM   10  C   UNK     0      25.716 -27.042 -23.207  0.00  0.00     0.074 A 
HETATM   11  C   UNK     0      25.180 -27.506 -24.409  0.00  0.00     0.071 A 
ENDROOT
BRANCH   4  12
HETATM   12  C   UNK     0      20.111 -26.420 -20.408  0.00  0.00    -0.020 A 
HETATM   13  C   UNK     0      19.636 -27.417 -19.553  0.00  0.00     0.015 A 
HETATM   14  C   UNK     0      18.673 -27.113 -18.591  0.00  0.00     0.037 A 
HETATM   15  C   UNK     0      18.182 -25.813 -18.483  0.00  0.00     0.065 A 
HETATM   16  C   UNK     0      18.655 -24.815 -19.335  0.00  0.00     0.037 A 
HETATM   17  C   UNK     0      19.618 -25.119 -20.297  0.00  0.00     0.015 A 
BRANCH  15  18
HETATM   18  O   UNK     0      17.242 -25.516 -17.543  0.00  0.00    -0.361 OA
HETATM   19  H   UNK     0      16.584 -24.917 -17.934  0.00  0.00     0.217 HD
ENDBRANCH  15  18
ENDBRANCH   4  12
BRANCH   7  20
HETATM   20  O   UNK     0      25.451 -26.279 -20.988  0.00  0.00    -0.360 OA
HETATM   21  H   UNK     0      24.850 -26.395 -20.237  0.00  0.00     0.217 HD
ENDBRANCH   7  20
BRANCH  11  22
HETATM   22  O   UNK     0      26.005 -27.811 -25.448  0.00  0.00    -0.361 OA
HETATM   23  H   UNK     0      26.928 -27.738 -25.149  0.00  0.00     0.217 HD
ENDBRANCH  11  22
TORSDOF 4
ENDMDL
MODEL 12
REMARK VINA RESULT:      -6.2      1.243      6.715
REMARK  4 active torsions:
REMARK  status: ('A' for Active; 'I' for Inactive)
REMARK    1  A    between atoms: O_2  and  C_11 
REMARK    2  A    between atoms: O_4  and  C_15 
REMARK    3  A    between atoms: O_5  and  C_20 
REMARK    4  A    between atoms: C_7  and  C_10 
ROOT
HETATM    1  O   UNK     0      18.835 -25.112 -18.847  0.00  0.00    -0.321 OA
HETATM    2  O   UNK     0      19.739 -28.871 -20.153  0.00  0.00    -0.286 OA
HETATM    3  C   UNK     0      18.363 -27.493 -18.829  0.00  0.00     0.082 A 
HETATM    4  C   UNK     0      20.215 -26.540 -20.246  0.00  0.00     0.048 A 
HETATM    5  C   UNK     0      18.107 -26.188 -18.409  0.00  0.00     0.094 A 
HETATM    6  C   UNK     0      19.463 -27.737 -19.781  0.00  0.00     0.200 A 
HETATM    7  C   UNK     0      17.587 -28.552 -18.349  0.00  0.00     0.085 A 
HETATM    8  C   UNK     0      19.844 -25.350 -19.750  0.00  0.00     0.159 A 
HETATM    9  C   UNK     0      17.074 -25.934 -17.506  0.00  0.00     0.074 A 
HETATM   10  C   UNK     0      16.556 -28.295 -17.446  0.00  0.00     0.074 A 
HETATM   11  C   UNK     0      16.298 -26.990 -17.025  0.00  0.00     0.071 A 
ENDROOT
BRANCH   4  12
HETATM   12  C   UNK     0      21.310 -26.639 -21.225  0.00  0.00    -0.020 A 
HETATM   13  C   UNK     0      21.033 -26.957 -22.556  0.00  0.00     0.015 A 
HETATM   14  C   UNK     0      22.070 -27.049 -23.484  0.00  0.00     0.037 A 
HETATM   15  C   UNK     0      23.387 -26.826 -23.082  0.00  0.00     0.065 A 
HETATM   16  C   UNK     0      23.666 -26.507 -21.753  0.00  0.00     0.037 A 
HETATM   17  C   UNK     0      22.629 -26.415 -20.826  0.00  0.00     0.015 A 
BRANCH  15  18
HETATM   18  O   UNK     0      24.399 -26.916 -23.988  0.00  0.00    -0.361 OA
HETATM   19  H   UNK     0      24.954 -27.683 -23.766  0.00  0.00     0.217 HD
ENDBRANCH  15  18
ENDBRANCH   4  12
BRANCH   7  20
HETATM   20  O   UNK     0      17.794 -29.844 -18.727  0.00  0.00    -0.360 OA
HETATM   21  H   UNK     0      17.426 -30.455 -18.071  0.00  0.00     0.217 HD
ENDBRANCH   7  20
BRANCH  11  22
HETATM   22  O   UNK     0      15.290 -26.746 -16.143  0.00  0.00    -0.361 OA
HETATM   23  H   UNK     0      15.403 -27.325 -15.369  0.00  0.00     0.217 HD
ENDBRANCH  11  22
TORSDOF 4
ENDMDL
MODEL 13
REMARK VINA RESULT:      -6.2     34.638     35.519
REMARK  4 active torsions:
REMARK  status: ('A' for Active; 'I' for Inactive)
REMARK    1  A    between atoms: O_2  and  C_11 
REMARK    2  A    between atoms: O_4  and  C_15 
REMARK    3  A    between atoms: O_5  and  C_20 
REMARK    4  A    between atoms: C_7  and  C_10 
ROOT
HETATM    1  O   UNK     0      46.075  -2.054 -24.120  0.00  0.00    -0.321 OA
HETATM    2  O   UNK     0      45.995  -4.171 -20.633  0.00  0.00    -0.286 OA
HETATM    3  C   UNK     0      46.540  -4.114 -22.923  0.00  0.00     0.082 A 
HETATM    4  C   UNK     0      45.565  -2.111 -21.746  0.00  0.00     0.048 A 
HETATM    5  C   UNK     0      46.533  -3.346 -24.087  0.00  0.00     0.094 A 
HETATM    6  C   UNK     0      46.033  -3.522 -21.671  0.00  0.00     0.200 A 
HETATM    7  C   UNK     0      47.019  -5.427 -22.949  0.00  0.00     0.085 A 
HETATM    8  C   UNK     0      45.625  -1.507 -22.943  0.00  0.00     0.159 A 
HETATM    9  C   UNK     0      47.004  -3.887 -25.285  0.00  0.00     0.074 A 
HETATM   10  C   UNK     0      47.489  -5.965 -24.147  0.00  0.00     0.074 A 
HETATM   11  C   UNK     0      47.482  -5.198 -25.312  0.00  0.00     0.071 A 
ENDROOT
BRANCH   4  12
HETATM   12  C   UNK     0      45.072  -1.389 -20.562  0.00  0.00    -0.020 A 
HETATM   13  C   UNK     0      45.946  -0.607 -19.804  0.00  0.00     0.015 A 
HETATM   14  C   UNK     0      45.478   0.078 -18.683  0.00  0.00     0.037 A 
HETATM   15  C   UNK     0      44.136  -0.019 -18.316  0.00  0.00     0.065 A 
HETATM   16  C   UNK     0      43.261  -0.799 -19.072  0.00  0.00     0.037 A 
HETATM   17  C   UNK     0      43.729  -1.484 -20.193  0.00  0.00     0.015 A 
BRANCH  15  18
HETATM   18  O   UNK     0      43.680   0.650 -17.222  0.00  0.00    -0.361 OA
HETATM   19  H   UNK     0      42.994   0.115 -16.788  0.00  0.00     0.217 HD
ENDBRANCH  15  18
ENDBRANCH   4  12
BRANCH   7  20
HETATM   20  O   UNK     0      47.049  -6.219 -21.842  0.00  0.00    -0.360 OA
HETATM   21  H   UNK     0      47.457  -5.751 -21.097  0.00  0.00     0.217 HD
ENDBRANCH   7  20
BRANCH  11  22
HETATM   22  O   UNK     0      47.941  -5.729 -26.479  0.00  0.00    -0.361 OA
HETATM   23  H   UNK     0      48.005  -6.695 -26.382  0.00  0.00     0.217 HD
ENDBRANCH  11  22
TORSDOF 4
ENDMDL
MODEL 14
REMARK VINA RESULT:      -6.1      7.930     10.607
REMARK  4 active torsions:
REMARK  status: ('A' for Active; 'I' for Inactive)
REMARK    1  A    between atoms: O_2  and  C_11 
REMARK    2  A    between atoms: O_4  and  C_15 
REMARK    3  A    between atoms: O_5  and  C_20 
REMARK    4  A    between atoms: C_7  and  C_10 
ROOT
HETATM    1  O   UNK     0      27.459 -31.421 -21.508  0.00  0.00    -0.321 OA
HETATM    2  O   UNK     0      29.760 -28.458 -23.112  0.00  0.00    -0.286 OA
HETATM    3  C   UNK     0      29.641 -30.390 -21.772  0.00  0.00     0.082 A 
HETATM    4  C   UNK     0      27.607 -29.456 -22.928  0.00  0.00     0.048 A 
HETATM    5  C   UNK     0      28.804 -31.372 -21.244  0.00  0.00     0.094 A 
HETATM    6  C   UNK     0      29.066 -29.354 -22.651  0.00  0.00     0.200 A 
HETATM    7  C   UNK     0      31.005 -30.390 -21.468  0.00  0.00     0.085 A 
HETATM    8  C   UNK     0      26.939 -30.463 -22.345  0.00  0.00     0.159 A 
HETATM    9  C   UNK     0      29.326 -32.359 -20.407  0.00  0.00     0.074 A 
HETATM   10  C   UNK     0      31.524 -31.378 -20.630  0.00  0.00     0.074 A 
HETATM   11  C   UNK     0      30.687 -32.361 -20.101  0.00  0.00     0.071 A 
ENDROOT
BRANCH   4  12
HETATM   12  C   UNK     0      26.915 -28.510 -23.819  0.00  0.00    -0.020 A 
HETATM   13  C   UNK     0      27.189 -28.509 -25.188  0.00  0.00     0.015 A 
HETATM   14  C   UNK     0      26.533 -27.614 -26.032  0.00  0.00     0.037 A 
HETATM   15  C   UNK     0      25.602 -26.716 -25.509  0.00  0.00     0.065 A 
HETATM   16  C   UNK     0      25.327 -26.715 -24.142  0.00  0.00     0.037 A 
HETATM   17  C   UNK     0      25.983 -27.611 -23.298  0.00  0.00     0.015 A 
BRANCH  15  18
HETATM   18  O   UNK     0      24.962 -25.843 -26.334  0.00  0.00    -0.361 OA
HETATM   19  H   UNK     0      24.175 -26.277 -26.704  0.00  0.00     0.217 HD
ENDBRANCH  15  18
ENDBRANCH   4  12
BRANCH   7  20
HETATM   20  O   UNK     0      31.866 -29.455 -21.957  0.00  0.00    -0.360 OA
HETATM   21  H   UNK     0      31.993 -28.738 -21.317  0.00  0.00     0.217 HD
ENDBRANCH   7  20
BRANCH  11  22
HETATM   22  O   UNK     0      31.199 -33.322 -19.284  0.00  0.00    -0.361 OA
HETATM   23  H   UNK     0      32.079 -33.578 -19.612  0.00  0.00     0.217 HD
ENDBRANCH  11  22
TORSDOF 4
ENDMDL
MODEL 15
REMARK VINA RESULT:      -6.1     13.931     17.044
REMARK  4 active torsions:
REMARK  status: ('A' for Active; 'I' for Inactive)
REMARK    1  A    between atoms: O_2  and  C_11 
REMARK    2  A    between atoms: O_4  and  C_15 
REMARK    3  A    between atoms: O_5  and  C_20 
REMARK    4  A    between atoms: C_7  and  C_10 
ROOT
HETATM    1  O   UNK     0      32.952 -20.669 -31.196  0.00  0.00    -0.321 OA
HETATM    2  O   UNK     0      30.781 -18.641 -28.400  0.00  0.00    -0.286 OA
HETATM    3  C   UNK     0      32.896 -19.165 -29.292  0.00  0.00     0.082 A 
HETATM    4  C   UNK     0      30.775 -20.080 -30.297  0.00  0.00     0.048 A 
HETATM    5  C   UNK     0      33.586 -19.889 -30.264  0.00  0.00     0.094 A 
HETATM    6  C   UNK     0      31.423 -19.238 -29.255  0.00  0.00     0.200 A 
HETATM    7  C   UNK     0      33.595 -18.386 -28.366  0.00  0.00     0.085 A 
HETATM    8  C   UNK     0      31.579 -20.712 -31.165  0.00  0.00     0.159 A 
HETATM    9  C   UNK     0      34.980 -19.839 -30.315  0.00  0.00     0.074 A 
HETATM   10  C   UNK     0      34.988 -18.338 -28.420  0.00  0.00     0.074 A 
HETATM   11  C   UNK     0      35.680 -19.061 -29.391  0.00  0.00     0.071 A 
ENDROOT
BRANCH   4  12
HETATM   12  C   UNK     0      29.311 -20.208 -30.396  0.00  0.00    -0.020 A 
HETATM   13  C   UNK     0      28.553 -19.168 -30.939  0.00  0.00     0.015 A 
HETATM   14  C   UNK     0      27.167 -19.290 -31.034  0.00  0.00     0.037 A 
HETATM   15  C   UNK     0      26.536 -20.450 -30.586  0.00  0.00     0.065 A 
HETATM   16  C   UNK     0      27.291 -21.489 -30.044  0.00  0.00     0.037 A 
HETATM   17  C   UNK     0      28.677 -21.368 -29.949  0.00  0.00     0.015 A 
BRANCH  15  18
HETATM   18  O   UNK     0      25.183 -20.568 -30.680  0.00  0.00    -0.361 OA
HETATM   19  H   UNK     0      24.956 -21.505 -30.803  0.00  0.00     0.217 HD
ENDBRANCH  15  18
ENDBRANCH   4  12
BRANCH   7  20
HETATM   20  O   UNK     0      32.971 -17.660 -27.398  0.00  0.00    -0.360 OA
HETATM   21  H   UNK     0      32.073 -17.993 -27.246  0.00  0.00     0.217 HD
ENDBRANCH   7  20
BRANCH  11  22
HETATM   22  O   UNK     0      37.039 -19.011 -29.438  0.00  0.00    -0.361 OA
HETATM   23  H   UNK     0      37.400 -19.586 -28.741  0.00  0.00     0.217 HD
ENDBRANCH  11  22
TORSDOF 4
ENDMDL
MODEL 16
REMARK VINA RESULT:      -6.1     13.278     16.632
REMARK  4 active torsions:
REMARK  status: ('A' for Active; 'I' for Inactive)
REMARK    1  A    between atoms: O_2  and  C_11 
REMARK    2  A    between atoms: O_4  and  C_15 
REMARK    3  A    between atoms: O_5  and  C_20 
REMARK    4  A    between atoms: C_7  and  C_10 
ROOT
HETATM    1  O   UNK     0      30.048 -22.720 -29.738  0.00  0.00    -0.321 OA
HETATM    2  O   UNK     0      29.465 -18.682 -29.776  0.00  0.00    -0.286 OA
HETATM    3  C   UNK     0      28.538 -20.836 -29.984  0.00  0.00     0.082 A 
HETATM    4  C   UNK     0      30.981 -20.493 -29.476  0.00  0.00     0.048 A 
HETATM    5  C   UNK     0      28.799 -22.206 -29.969  0.00  0.00     0.094 A 
HETATM    6  C   UNK     0      29.646 -19.893 -29.744  0.00  0.00     0.200 A 
HETATM    7  C   UNK     0      27.243 -20.369 -30.226  0.00  0.00     0.085 A 
HETATM    8  C   UNK     0      31.068 -21.832 -29.494  0.00  0.00     0.159 A 
HETATM    9  C   UNK     0      27.767 -23.117 -30.199  0.00  0.00     0.074 A 
HETATM   10  C   UNK     0      26.213 -21.282 -30.455  0.00  0.00     0.074 A 
HETATM   11  C   UNK     0      26.473 -22.653 -30.441  0.00  0.00     0.071 A 
ENDROOT
BRANCH   4  12
HETATM   12  C   UNK     0      32.163 -19.666 -29.183  0.00  0.00    -0.020 A 
HETATM   13  C   UNK     0      32.159 -18.804 -28.084  0.00  0.00     0.015 A 
HETATM   14  C   UNK     0      33.279 -18.022 -27.805  0.00  0.00     0.037 A 
HETATM   15  C   UNK     0      34.405 -18.097 -28.625  0.00  0.00     0.065 A 
HETATM   16  C   UNK     0      34.411 -18.957 -29.723  0.00  0.00     0.037 A 
HETATM   17  C   UNK     0      33.291 -19.740 -30.002  0.00  0.00     0.015 A 
BRANCH  15  18
HETATM   18  O   UNK     0      35.498 -17.333 -28.352  0.00  0.00    -0.361 OA
HETATM   19  H   UNK     0      36.236 -17.626 -28.913  0.00  0.00     0.217 HD
ENDBRANCH  15  18
ENDBRANCH   4  12
BRANCH   7  20
HETATM   20  O   UNK     0      26.934 -19.043 -30.250  0.00  0.00    -0.360 OA
HETATM   21  H   UNK     0      26.605 -18.784 -31.125  0.00  0.00     0.217 HD
ENDBRANCH   7  20
BRANCH  11  22
HETATM   22  O   UNK     0      25.464 -23.538 -30.666  0.00  0.00    -0.361 OA
HETATM   23  H   UNK     0      25.647 -24.356 -30.172  0.00  0.00     0.217 HD
ENDBRANCH  11  22
TORSDOF 4
ENDMDL
MODEL 17
REMARK VINA RESULT:      -6.0      1.841      7.557
REMARK  4 active torsions:
REMARK  status: ('A' for Active; 'I' for Inactive)
REMARK    1  A    between atoms: O_2  and  C_11 
REMARK    2  A    between atoms: O_4  and  C_15 
REMARK    3  A    between atoms: O_5  and  C_20 
REMARK    4  A    between atoms: C_7  and  C_10 
ROOT
HETATM    1  O   UNK     0      20.647 -28.614 -21.243  0.00  0.00    -0.321 OA
HETATM    2  O   UNK     0      22.038 -24.918 -22.267  0.00  0.00    -0.286 OA
HETATM    3  C   UNK     0      20.458 -26.200 -21.082  0.00  0.00     0.082 A 
HETATM    4  C   UNK     0      22.299 -27.279 -22.420  0.00  0.00     0.048 A 
HETATM    5  C   UNK     0      20.021 -27.488 -20.774  0.00  0.00     0.094 A 
HETATM    6  C   UNK     0      21.639 -26.031 -21.949  0.00  0.00     0.200 A 
HETATM    7  C   UNK     0      19.780 -25.087 -20.575  0.00  0.00     0.085 A 
HETATM    8  C   UNK     0      21.758 -28.445 -22.033  0.00  0.00     0.159 A 
HETATM    9  C   UNK     0      18.903 -27.671 -19.959  0.00  0.00     0.074 A 
HETATM   10  C   UNK     0      18.663 -25.274 -19.761  0.00  0.00     0.074 A 
HETATM   11  C   UNK     0      18.225 -26.562 -19.452  0.00  0.00     0.071 A 
ENDROOT
BRANCH   4  12
HETATM   12  C   UNK     0      23.509 -27.252 -23.258  0.00  0.00    -0.020 A 
HETATM   13  C   UNK     0      24.757 -27.015 -22.680  0.00  0.00     0.015 A 
HETATM   14  C   UNK     0      25.903 -26.991 -23.474  0.00  0.00     0.037 A 
HETATM   15  C   UNK     0      25.803 -27.202 -24.849  0.00  0.00     0.065 A 
HETATM   16  C   UNK     0      24.558 -27.440 -25.429  0.00  0.00     0.037 A 
HETATM   17  C   UNK     0      23.412 -27.464 -24.635  0.00  0.00     0.015 A 
BRANCH  15  18
HETATM   18  O   UNK     0      26.923 -27.179 -25.624  0.00  0.00    -0.361 OA
HETATM   19  H   UNK     0      26.872 -27.901 -26.273  0.00  0.00     0.217 HD
ENDBRANCH  15  18
ENDBRANCH   4  12
BRANCH   7  20
HETATM   20  O   UNK     0      20.165 -23.809 -20.844  0.00  0.00    -0.360 OA
HETATM   21  H   UNK     0      19.515 -23.369 -21.413  0.00  0.00     0.217 HD
ENDBRANCH   7  20
BRANCH  11  22
HETATM   22  O   UNK     0      17.134 -26.737 -18.657  0.00  0.00    -0.361 OA
HETATM   23  H   UNK     0      16.641 -25.899 -18.609  0.00  0.00     0.217 HD
ENDBRANCH  11  22
TORSDOF 4
ENDMDL
MODEL 18
REMARK VINA RESULT:      -6.0     15.341     18.893
REMARK  4 active torsions:
REMARK  status: ('A' for Active; 'I' for Inactive)
REMARK    1  A    between atoms: O_2  and  C_11 
REMARK    2  A    between atoms: O_4  and  C_15 
REMARK    3  A    between atoms: O_5  and  C_20 
REMARK    4  A    between atoms: C_7  and  C_10 
ROOT
HETATM    1  O   UNK     0      34.861 -20.427 -30.454  0.00  0.00    -0.321 OA
HETATM    2  O   UNK     0      33.257 -17.034 -28.853  0.00  0.00    -0.286 OA
HETATM    3  C   UNK     0      35.187 -18.275 -29.381  0.00  0.00     0.082 A 
HETATM    4  C   UNK     0      32.881 -19.114 -29.949  0.00  0.00     0.048 A 
HETATM    5  C   UNK     0      35.678 -19.459 -29.931  0.00  0.00     0.094 A 
HETATM    6  C   UNK     0      33.730 -18.047 -29.353  0.00  0.00     0.200 A 
HETATM    7  C   UNK     0      36.068 -17.323 -28.861  0.00  0.00     0.085 A 
HETATM    8  C   UNK     0      33.507 -20.194 -30.442  0.00  0.00     0.159 A 
HETATM    9  C   UNK     0      37.053 -19.698 -29.964  0.00  0.00     0.074 A 
HETATM   10  C   UNK     0      37.442 -17.564 -28.895  0.00  0.00     0.074 A 
HETATM   11  C   UNK     0      37.934 -18.748 -29.445  0.00  0.00     0.071 A 
ENDROOT
BRANCH   4  12
HETATM   12  C   UNK     0      31.415 -18.995 -30.021  0.00  0.00    -0.020 A 
HETATM   13  C   UNK     0      30.611 -19.680 -29.109  0.00  0.00     0.015 A 
HETATM   14  C   UNK     0      29.223 -19.566 -29.176  0.00  0.00     0.037 A 
HETATM   15  C   UNK     0      28.636 -18.767 -30.157  0.00  0.00     0.065 A 
HETATM   16  C   UNK     0      29.437 -18.080 -31.069  0.00  0.00     0.037 A 
HETATM   17  C   UNK     0      30.825 -18.195 -31.001  0.00  0.00     0.015 A 
BRANCH  15  18
HETATM   18  O   UNK     0      27.280 -18.655 -30.221  0.00  0.00    -0.361 OA
HETATM   19  H   UNK     0      27.027 -18.413 -31.129  0.00  0.00     0.217 HD
ENDBRANCH  15  18
ENDBRANCH   4  12
BRANCH   7  20
HETATM   20  O   UNK     0      35.643 -16.150 -28.314  0.00  0.00    -0.360 OA
HETATM   21  H   UNK     0      35.622 -16.212 -27.347  0.00  0.00     0.217 HD
ENDBRANCH   7  20
BRANCH  11  22
HETATM   22  O   UNK     0      39.275 -18.978 -29.475  0.00  0.00    -0.361 OA
HETATM   23  H   UNK     0      39.716 -18.217 -29.891  0.00  0.00     0.217 HD
ENDBRANCH  11  22
TORSDOF 4
ENDMDL
MODEL 19
REMARK VINA RESULT:      -6.0     15.013     18.884
REMARK  4 active torsions:
REMARK  status: ('A' for Active; 'I' for Inactive)
REMARK    1  A    between atoms: O_2  and  C_11 
REMARK    2  A    between atoms: O_4  and  C_15 
REMARK    3  A    between atoms: O_5  and  C_20 
REMARK    4  A    between atoms: C_7  and  C_10 
ROOT
HETATM    1  O   UNK     0      33.452 -15.844 -30.498  0.00  0.00    -0.321 OA
HETATM    2  O   UNK     0      33.778 -19.579 -28.890  0.00  0.00    -0.286 OA
HETATM    3  C   UNK     0      34.783 -17.493 -29.315  0.00  0.00     0.082 A 
HETATM    4  C   UNK     0      32.411 -17.983 -30.009  0.00  0.00     0.048 A 
HETATM    5  C   UNK     0      34.618 -16.233 -29.891  0.00  0.00     0.094 A 
HETATM    6  C   UNK     0      33.665 -18.453 -29.358  0.00  0.00     0.200 A 
HETATM    7  C   UNK     0      35.995 -17.836 -28.709  0.00  0.00     0.085 A 
HETATM    8  C   UNK     0      32.411 -16.739 -30.514  0.00  0.00     0.159 A 
HETATM    9  C   UNK     0      35.664 -15.310 -29.865  0.00  0.00     0.074 A 
HETATM   10  C   UNK     0      37.039 -16.911 -28.685  0.00  0.00     0.074 A 
HETATM   11  C   UNK     0      36.875 -15.651 -29.261  0.00  0.00     0.071 A 
ENDROOT
BRANCH   4  12
HETATM   12  C   UNK     0      31.208 -18.827 -30.085  0.00  0.00    -0.020 A 
HETATM   13  C   UNK     0      30.309 -18.863 -29.018  0.00  0.00     0.015 A 
HETATM   14  C   UNK     0      29.168 -19.662 -29.091  0.00  0.00     0.037 A 
HETATM   15  C   UNK     0      28.925 -20.428 -30.230  0.00  0.00     0.065 A 
HETATM   16  C   UNK     0      29.822 -20.394 -31.298  0.00  0.00     0.037 A 
HETATM   17  C   UNK     0      30.962 -19.595 -31.225  0.00  0.00     0.015 A 
BRANCH  15  18
HETATM   18  O   UNK     0      27.811 -21.208 -30.301  0.00  0.00    -0.361 OA
HETATM   19  H   UNK     0      27.962 -22.021 -29.789  0.00  0.00     0.217 HD
ENDBRANCH  15  18
ENDBRANCH   4  12
BRANCH   7  20
HETATM   20  O   UNK     0      36.208 -19.051 -28.131  0.00  0.00    -0.360 OA
HETATM   21  H   UNK     0      36.962 -19.498 -28.546  0.00  0.00     0.217 HD
ENDBRANCH   7  20
BRANCH  11  22
HETATM   22  O   UNK     0      37.898 -14.753 -29.235  0.00  0.00    -0.361 OA
HETATM   23  H   UNK     0      38.742 -15.236 -29.273  0.00  0.00     0.217 HD
ENDBRANCH  11  22
TORSDOF 4
ENDMDL
MODEL 20
REMARK VINA RESULT:      -5.9     25.231     29.008
REMARK  4 active torsions:
REMARK  status: ('A' for Active; 'I' for Inactive)
REMARK    1  A    between atoms: O_2  and  C_11 
REMARK    2  A    between atoms: O_4  and  C_15 
REMARK    3  A    between atoms: O_5  and  C_20 
REMARK    4  A    between atoms: C_7  and  C_10 
ROOT
HETATM    1  O   UNK     0      39.187  -8.573 -28.295  0.00  0.00    -0.321 OA
HETATM    2  O   UNK     0      40.714  -8.528 -24.512  0.00  0.00    -0.286 OA
HETATM    3  C   UNK     0      38.822  -8.726 -25.900  0.00  0.00     0.082 A 
HETATM    4  C   UNK     0      41.135  -8.420 -26.853  0.00  0.00     0.048 A 
HETATM    5  C   UNK     0      38.356  -8.723 -27.215  0.00  0.00     0.094 A 
HETATM    6  C   UNK     0      40.267  -8.560 -25.651  0.00  0.00     0.200 A 
HETATM    7  C   UNK     0      37.929  -8.882 -24.837  0.00  0.00     0.085 A 
HETATM    8  C   UNK     0      40.532  -8.440 -28.052  0.00  0.00     0.159 A 
HETATM    9  C   UNK     0      36.993  -8.874 -27.474  0.00  0.00     0.074 A 
HETATM   10  C   UNK     0      36.567  -9.034 -25.099  0.00  0.00     0.074 A 
HETATM   11  C   UNK     0      36.099  -9.030 -26.414  0.00  0.00     0.071 A 
ENDROOT
BRANCH   4  12
HETATM   12  C   UNK     0      42.597  -8.287 -26.746  0.00  0.00    -0.020 A 
HETATM   13  C   UNK     0      43.432  -9.241 -27.331  0.00  0.00     0.015 A 
HETATM   14  C   UNK     0      44.817  -9.113 -27.231  0.00  0.00     0.037 A 
HETATM   15  C   UNK     0      45.370  -8.033 -26.545  0.00  0.00     0.065 A 
HETATM   16  C   UNK     0      44.538  -7.078 -25.961  0.00  0.00     0.037 A 
HETATM   17  C   UNK     0      43.153  -7.205 -26.060  0.00  0.00     0.015 A 
BRANCH  15  18
HETATM   18  O   UNK     0      46.723  -7.909 -26.449  0.00  0.00    -0.361 OA
HETATM   19  H   UNK     0      46.986  -8.040 -25.522  0.00  0.00     0.217 HD
ENDBRANCH  15  18
ENDBRANCH   4  12
BRANCH   7  20
HETATM   20  O   UNK     0      38.331  -8.894 -23.536  0.00  0.00    -0.360 OA
HETATM   21  H   UNK     0      38.369  -9.802 -23.198  0.00  0.00     0.217 HD
ENDBRANCH   7  20
BRANCH  11  22
HETATM   22  O   UNK     0      34.769  -9.178 -26.663  0.00  0.00    -0.361 OA
HETATM   23  H   UNK     0      34.578 -10.121 -26.804  0.00  0.00     0.217 HD
ENDBRANCH  11  22
TORSDOF 4
ENDMDL
