REMARK  Name = GEN_ideal-fromCHARMMGUI.pdb
REMARK  4 active torsions:
REMARK  status: ('A' for Active; 'I' for Inactive)
REMARK    1  A    between atoms: _2  and  _3
REMARK    2  A    between atoms: _5  and  _6
REMARK    3  A    between atoms: _10  and  _14
REMARK    4  A    between atoms: _17  and  _18
REMARK                            x       y       z     vdW  Elec       q    Type
REMARK                         _______ _______ _______ _____ _____    ______ ____
ROOT
ATOM      1  C   UNL     1      -1.336   0.193  -3.439  0.00  0.00    +0.023 A 
ATOM      2  C   UNL     1      -1.011  -0.018  -2.105  0.00  0.00    +0.145 A 
ATOM      3  O   UNL     1      -2.058  -0.142  -1.212  0.00  0.00    -0.462 OA
ATOM      4  C   UNL     1      -1.823   0.078   0.127  0.00  0.00    +0.104 A 
ATOM      5  H   UNL     1      -2.684   0.279   0.775  0.00  0.00    +0.104 HD
ATOM      6  C   UNL     1      -0.547  -0.112   0.631  0.00  0.00    +0.064 A 
ATOM      7  C   UNL     1       0.513  -0.345  -0.273  0.00  0.00    +0.204 A 
ATOM      8  O   UNL     1       1.633  -0.661   0.154  0.00  0.00    -0.286 OA
ATOM      9  C   UNL     1       0.288  -0.207  -1.688  0.00  0.00    +0.106 A 
ATOM     10  C   UNL     1       1.318  -0.175  -2.644  0.00  0.00    +0.135 A 
ATOM     11  C   UNL     1       1.014   0.044  -3.989  0.00  0.00    +0.022 A 
ATOM     12  H   UNL     1       1.815   0.068  -4.713  0.00  0.00    +0.069 HD
ATOM     13  H   UNL     1      -2.367   0.311  -3.734  0.00  0.00    +0.069 HD
ATOM     14  C   UNL     1      -0.312   0.227  -4.384  0.00  0.00    +0.124 A 
ENDROOT
BRANCH   6  15
ATOM     15  C   UNL     1      -0.336  -0.007   2.115  0.00  0.00    -0.011 A 
ATOM     16  C   UNL     1      -0.995  -0.881   3.000  0.00  0.00    -0.050 A 
ATOM     17  C   UNL     1      -0.774  -0.777   4.382  0.00  0.00    -0.020 A 
ATOM     18  H   UNL     1      -1.266  -1.455   5.063  0.00  0.00    +0.065 HD
ATOM     19  C   UNL     1       0.091   0.203   4.883  0.00  0.00    +0.117 A 
ATOM     20  C   UNL     1       0.744   1.081   4.010  0.00  0.00    -0.020 A 
ATOM     21  H   UNL     1       1.413   1.838   4.390  0.00  0.00    +0.065 HD
ATOM     22  H   UNL     1      -1.653  -1.651   2.623  0.00  0.00    +0.062 HD
ATOM     23  C   UNL     1       0.536   0.974   2.628  0.00  0.00    -0.050 A 
ATOM     24  H   UNL     1       1.051   1.651   1.959  0.00  0.00    +0.062 HD
BRANCH  19  25
ATOM     25  O   UNL     1       0.303   0.303   6.270  0.00  0.00    -0.507 OA
ATOM     26  H   UNL     1       0.929   1.014   6.415  0.00  0.00    +0.292 HD
ENDBRANCH  19  25
ENDBRANCH   6  15
BRANCH  10  27
ATOM     27  O   UNL     1       2.671  -0.348  -2.298  0.00  0.00    -0.506 OA
ATOM     28  H   UNL     1       2.689  -0.549  -1.349  0.00  0.00    +0.292 HD
ENDBRANCH  10  27
BRANCH  14  29
ATOM     29  O   UNL     1      -0.620   0.429  -5.739  0.00  0.00    -0.507 OA
ATOM     30  H   UNL     1       0.202   0.407  -6.233  0.00  0.00    +0.292 HD
ENDBRANCH  14  29
TORSDOF 4
