REMARK  Name = GEN
REMARK  4 active torsions:
REMARK  status: ('A' for Active; 'I' for Inactive)
REMARK    1  A    between atoms: C_2  and  O_3
REMARK    2  A    between atoms: C_5  and  O_6
REMARK    3  A    between atoms: C_10  and  C_14
REMARK    4  A    between atoms: C_17  and  O_18
REMARK                            x       y       z     vdW  Elec       q    Type
REMARK                         _______ _______ _______ _____ _____    ______ ____
ROOT
ATOM      1  C   UNL     1      -1.336   0.182  -3.436  0.00  0.00    +0.023 A 
ATOM      2  H   UNL     1      -2.360   0.311  -3.756  0.00  0.00    +0.069 HD
ATOM      3  C   UNL     1      -1.049  -0.015  -2.094  0.00  0.00    +0.145 A 
ATOM      4  O   UNL     1      -2.035  -0.056  -1.174  0.00  0.00    -0.462 OA
ATOM      5  C   UNL     1      -1.801   0.043   0.139  0.00  0.00    +0.104 A 
ATOM      6  H   UNL     1      -2.628   0.246   0.803  0.00  0.00    +0.104 HD
ATOM      7  C   UNL     1      -0.556  -0.102   0.662  0.00  0.00    +0.064 A 
ATOM      8  C   UNL     1       0.565  -0.362  -0.260  0.00  0.00    +0.204 A 
ATOM      9  O   UNL     1       1.660  -0.716   0.143  0.00  0.00    -0.286 OA
ATOM     10  C   UNL     1       0.289  -0.176  -1.693  0.00  0.00    +0.106 A 
ATOM     11  C   UNL     1       1.320  -0.148  -2.640  0.00  0.00    +0.135 A 
ATOM     12  C   UNL     1       1.012   0.047  -3.973  0.00  0.00    +0.022 A 
ATOM     13  H   UNL     1       1.801   0.071  -4.711  0.00  0.00    +0.069 HD
ATOM     14  C   UNL     1      -0.311   0.213  -4.368  0.00  0.00    +0.124 A 
ENDROOT
BRANCH   7  15
ATOM     15  C   UNL     1      -0.328   0.002   2.124  0.00  0.00    -0.011 A 
ATOM     16  C   UNL     1       0.529   0.977   2.629  0.00  0.00    -0.050 A 
ATOM     17  H   UNL     1       1.030   1.658   1.956  0.00  0.00    +0.062 HD
ATOM     18  C   UNL     1       0.735   1.075   3.989  0.00  0.00    -0.020 A 
ATOM     19  H   UNL     1       1.400   1.831   4.381  0.00  0.00    +0.065 HD
ATOM     20  C   UNL     1       0.097   0.197   4.854  0.00  0.00    +0.117 A 
ATOM     21  C   UNL     1      -0.758  -0.774   4.355  0.00  0.00    -0.020 A 
ATOM     22  H   UNL     1      -1.257  -1.453   5.031  0.00  0.00    +0.065 HD
ATOM     23  C   UNL     1      -0.972  -0.874   2.996  0.00  0.00    -0.050 A 
ATOM     24  H   UNL     1      -1.637  -1.631   2.607  0.00  0.00    +0.062 HD
BRANCH  20  25
ATOM     25  O   UNL     1       0.305   0.293   6.194  0.00  0.00    -0.507 OA
ATOM     26  H   UNL     1       1.058  -0.276   6.401  0.00  0.00    +0.292 HD
ENDBRANCH  20  25
ENDBRANCH   7  15
BRANCH  11  27
ATOM     27  O   UNL     1       2.610  -0.312  -2.252  0.00  0.00    -0.506 OA
ATOM     28  H   UNL     1       2.957   0.568  -2.056  0.00  0.00    +0.292 HD
ENDBRANCH  11  27
BRANCH  14  29
ATOM     29  O   UNL     1      -0.601   0.409  -5.679  0.00  0.00    -0.507 OA
ATOM     30  H   UNL     1      -0.581   1.364  -5.830  0.00  0.00    +0.292 HD
ENDBRANCH  14  29
TORSDOF 4
