GEN
  -OEChem-07012216533D

 30 32  0     0  0  0  0  0  0999 V2000
   19.0240    6.9420  114.6830 C   0  0  0  0  0  0  0  0  0  0  0  0
   18.7150    7.2530  116.0120 C   0  0  0  0  0  0  0  0  0  0  0  0
   17.4740    6.8840  116.5100 O   0  0  0  0  0  0  0  0  0  0  0  0
   19.5540    7.9330  116.8530 C   0  0  0  0  0  0  0  0  0  0  0  0
   20.8110    8.3040  116.3680 C   0  0  0  0  0  0  0  0  0  0  0  0
   21.7120    9.0070  117.1070 O   0  0  0  0  0  0  0  0  0  0  0  0
   21.1690    8.0260  115.0360 C   0  0  0  0  0  0  0  0  0  0  0  0
   22.4650    8.4860  114.4820 C   0  0  0  0  0  0  0  0  0  0  0  0
   23.3280    9.0930  115.0980 O   0  0  0  0  0  0  0  0  0  0  0  0
   22.7310    8.1260  113.0680 C   0  0  0  0  0  0  0  0  0  0  0  0
   21.7980    7.4240  112.3740 C   0  0  0  0  0  0  0  0  0  0  0  0
   20.6000    7.0510  112.9140 O   0  0  0  0  0  0  0  0  0  0  0  0
   20.2900    7.3550  114.2140 C   0  0  0  0  0  0  0  0  0  0  0  0
   23.9720    8.4110  112.2590 C   0  0  0  0  0  0  0  0  0  0  0  0
   25.2480    8.3780  112.8180 C   0  0  0  0  0  0  0  0  0  0  0  0
   26.3820    8.6240  112.0620 C   0  0  0  0  0  0  0  0  0  0  0  0
   26.2570    8.9000  110.7170 C   0  0  0  0  0  0  0  0  0  0  0  0
   27.4010    9.1220  109.9700 O   0  0  0  0  0  0  0  0  0  0  0  0
   24.9990    8.9640  110.1140 C   0  0  0  0  0  0  0  0  0  0  0  0
   23.8410    8.7110  110.8910 C   0  0  0  0  0  0  0  0  0  0  0  0
   18.3090    6.4010  114.0400 H   0  0  0  0  0  0  0  0  0  0  0  0
   17.2640    7.0950  117.4120 H   0  0  0  0  0  0  0  0  0  0  0  0
   19.2300    8.1720  117.8790 H   0  0  0  0  0  0  0  0  0  0  0  0
   22.5660    9.2590  116.7770 H   0  0  0  0  0  0  0  0  0  0  0  0
   22.0220    7.1450  111.3300 H   0  0  0  0  0  0  0  0  0  0  0  0
   25.3630    8.1500  113.8910 H   0  0  0  0  0  0  0  0  0  0  0  0
   27.3800    8.6000  112.5290 H   0  0  0  0  0  0  0  0  0  0  0  0
   27.3140    9.3120  109.0430 H   0  0  0  0  0  0  0  0  0  0  0  0
   24.9210    9.2100  109.0410 H   0  0  0  0  0  0  0  0  0  0  0  0
   22.8380    8.7470  110.4310 H   0  0  0  0  0  0  0  0  0  0  0  0
  1  2  2  0  0  0  0
  1 13  1  0  0  0  0
  1 21  1  0  0  0  0
  2  3  1  0  0  0  0
  2  4  1  0  0  0  0
  3 22  1  0  0  0  0
  4  5  2  0  0  0  0
  4 23  1  0  0  0  0
  5  6  1  0  0  0  0
  5  7  1  0  0  0  0
  6 24  1  0  0  0  0
  7  8  1  0  0  0  0
  7 13  2  0  0  0  0
  8  9  2  0  0  0  0
  8 10  1  0  0  0  0
 10 11  2  0  0  0  0
 10 14  1  0  0  0  0
 11 12  1  0  0  0  0
 11 25  1  0  0  0  0
 12 13  1  0  0  0  0
 14 15  2  0  0  0  0
 14 20  1  0  0  0  0
 15 16  1  0  0  0  0
 15 26  1  0  0  0  0
 16 17  2  0  0  0  0
 16 27  1  0  0  0  0
 17 18  1  0  0  0  0
 17 19  1  0  0  0  0
 18 28  1  0  0  0  0
 19 20  2  0  0  0  0
 19 29  1  0  0  0  0
 20 30  1  0  0  0  0
M  END
> <OPENEYE_ISO_SMILES>
c1cc(ccc1c2coc3cc(cc(c3c2=O)O)O)O

> <OPENEYE_INCHI>
InChI=1S/C15H10O5/c16-9-3-1-8(2-4-9)11-7-20-13-6-10(17)5-12(18)14(13)15(11)19/h1-7,16-18H

> <OPENEYE_INCHIKEY>
TZBJGXHYKVUXJN-UHFFFAOYSA-N

> <FORMULA>
C15H10O5

$$$$
