REMARK SMILES O=c1c(-c2ccc(O)cc2)coc2cc(O)cc(O)c12
REMARK SMILES IDX 14 1 15 2 17 3 18 4 20 5 2 6 1 7 3 8 11 9 12 10 13 11 16 12
REMARK SMILES IDX 19 14 4 16 5 17 10 18 6 19 9 20 7 21 8 22
REMARK H PARENT 16 13 19 15 8 23
REMARK Flexibility Score: inf
ROOT
ATOM      1  C   UNL     1      19.024   6.942 114.683  1.00  0.00     0.094 A 
ATOM      2  C   UNL     1      18.715   7.253 116.012  1.00  0.00     0.123 A 
ATOM      3  C   UNL     1      19.554   7.933 116.853  1.00  0.00     0.093 A 
ATOM      4  C   UNL     1      20.811   8.304 116.368  1.00  0.00     0.134 A 
ATOM      5  C   UNL     1      21.169   8.026 115.036  1.00  0.00     0.107 A 
ATOM      6  C   UNL     1      22.465   8.486 114.482  1.00  0.00     0.204 A 
ATOM      7  O   UNL     1      23.328   9.093 115.098  1.00  0.00    -0.288 OA
ATOM      8  C   UNL     1      22.731   8.126 113.068  1.00  0.00     0.065 A 
ATOM      9  C   UNL     1      21.798   7.424 112.374  1.00  0.00     0.208 A 
ATOM     10  O   UNL     1      20.600   7.051 112.914  1.00  0.00    -0.463 OA
ATOM     11  C   UNL     1      20.290   7.355 114.214  1.00  0.00     0.145 A 
ENDROOT
BRANCH   2  12
ATOM     12  O   UNL     1      17.474   6.884 116.510  1.00  0.00    -0.508 OA
ATOM     13  H   UNL     1      17.264   7.095 117.412  1.00  0.00     0.293 HD
ENDBRANCH   2  12
BRANCH   4  14
ATOM     14  O   UNL     1      21.712   9.007 117.107  1.00  0.00    -0.507 OA
ATOM     15  H   UNL     1      22.566   9.259 116.777  1.00  0.00     0.293 HD
ENDBRANCH   4  14
BRANCH   8  16
ATOM     16  C   UNL     1      23.972   8.411 112.259  1.00  0.00    -0.011 A 
ATOM     17  C   UNL     1      25.248   8.378 112.818  1.00  0.00     0.013 A 
ATOM     18  C   UNL     1      23.841   8.711 110.891  1.00  0.00     0.013 A 
ATOM     19  C   UNL     1      26.382   8.624 112.062  1.00  0.00     0.047 A 
ATOM     20  C   UNL     1      24.999   8.964 110.114  1.00  0.00     0.047 A 
ATOM     21  C   UNL     1      26.257   8.900 110.717  1.00  0.00     0.115 A 
BRANCH  21  22
ATOM     22  O   UNL     1      27.401   9.122 109.970  1.00  0.00    -0.508 OA
ATOM     23  H   UNL     1      27.314   9.312 109.043  1.00  0.00     0.293 HD
ENDBRANCH  21  22
ENDBRANCH   8  16
TORSDOF 4

