REMARK SMILES O=c1c(-c2ccc(O)cc2)coc2cc(O)cc(O)c12
REMARK SMILES IDX 14 1 15 2 17 3 18 4 20 5 2 6 1 7 3 8 11 9 12 10 13 11 16 12
REMARK SMILES IDX 19 14 4 16 5 17 10 18 6 19 9 20 7 21 8 22
REMARK H PARENT 16 13 19 15 8 23
REMARK Flexibility Score: inf
ROOT
ATOM      1  C   UNL     1      -1.336   0.182  -3.436  1.00  0.00     0.094 A 
ATOM      2  C   UNL     1      -0.311   0.213  -4.368  1.00  0.00     0.123 A 
ATOM      3  C   UNL     1       1.012   0.047  -3.973  1.00  0.00     0.093 A 
ATOM      4  C   UNL     1       1.320  -0.148  -2.640  1.00  0.00     0.134 A 
ATOM      5  C   UNL     1       0.289  -0.176  -1.693  1.00  0.00     0.107 A 
ATOM      6  C   UNL     1       0.565  -0.362  -0.260  1.00  0.00     0.204 A 
ATOM      7  O   UNL     1       1.660  -0.716   0.143  1.00  0.00    -0.288 OA
ATOM      8  C   UNL     1      -0.556  -0.102   0.662  1.00  0.00     0.065 A 
ATOM      9  C   UNL     1      -1.801   0.043   0.139  1.00  0.00     0.208 A 
ATOM     10  O   UNL     1      -2.035  -0.056  -1.174  1.00  0.00    -0.463 OA
ATOM     11  C   UNL     1      -1.049  -0.015  -2.094  1.00  0.00     0.145 A 
ENDROOT
BRANCH   2  12
ATOM     12  O   UNL     1      -0.601   0.409  -5.679  1.00  0.00    -0.508 OA
ATOM     13  H   UNL     1      -0.581   1.364  -5.830  1.00  0.00     0.293 HD
ENDBRANCH   2  12
BRANCH   4  14
ATOM     14  O   UNL     1       2.610  -0.312  -2.252  1.00  0.00    -0.507 OA
ATOM     15  H   UNL     1       2.957   0.568  -2.056  1.00  0.00     0.293 HD
ENDBRANCH   4  14
BRANCH   8  16
ATOM     16  C   UNL     1      -0.328   0.002   2.124  1.00  0.00    -0.011 A 
ATOM     17  C   UNL     1      -0.972  -0.874   2.996  1.00  0.00     0.013 A 
ATOM     18  C   UNL     1       0.529   0.977   2.629  1.00  0.00     0.013 A 
ATOM     19  C   UNL     1      -0.758  -0.774   4.355  1.00  0.00     0.047 A 
ATOM     20  C   UNL     1       0.735   1.075   3.989  1.00  0.00     0.047 A 
ATOM     21  C   UNL     1       0.097   0.197   4.854  1.00  0.00     0.115 A 
BRANCH  21  22
ATOM     22  O   UNL     1       0.305   0.293   6.194  1.00  0.00    -0.508 OA
ATOM     23  H   UNL     1       1.058  -0.276   6.401  1.00  0.00     0.293 HD
ENDBRANCH  21  22
ENDBRANCH   8  16
TORSDOF 4

