MODEL 1
REMARK VINA RESULT:    -7.761      0.000      0.000
REMARK INTER + INTRA:          -8.985
REMARK INTER:                  -8.688
REMARK INTRA:                  -0.297
REMARK UNBOUND:                -0.090
REMARK SMILES O=c1c(-c2ccc(O)cc2)coc2cc(O)cc(O)c12
REMARK SMILES IDX 14 1 15 2 17 3 18 4 20 5 2 6 1 7 3 8 11 9 12 10 13 11 16 12
REMARK SMILES IDX 19 14 4 16 5 17 10 18 6 19 9 20 7 21 8 22
REMARK H PARENT 16 13 19 15 8 23
REMARK Flexibility Score: inf
ROOT
ATOM      1  C   UNL     1      -2.981  -5.782 -53.214  1.00  0.00     0.094 A 
ATOM      2  C   UNL     1      -2.589  -5.724 -54.541  1.00  0.00     0.123 A 
ATOM      3  C   UNL     1      -1.421  -5.065 -54.908  1.00  0.00     0.093 A 
ATOM      4  C   UNL     1      -0.638  -4.454 -53.948  1.00  0.00     0.134 A 
ATOM      5  C   UNL     1      -1.031  -4.505 -52.605  1.00  0.00     0.107 A 
ATOM      6  C   UNL     1      -0.242  -3.855 -51.547  1.00  0.00     0.204 A 
ATOM      7  O   UNL     1       0.886  -3.438 -51.750  1.00  0.00    -0.288 OA
ATOM      8  C   UNL     1      -0.887  -3.740 -50.226  1.00  0.00     0.065 A 
ATOM      9  C   UNL     1      -2.029  -4.440 -50.003  1.00  0.00     0.208 A 
ATOM     10  O   UNL     1      -2.570  -5.231 -50.936  1.00  0.00    -0.463 OA
ATOM     11  C   UNL     1      -2.208  -5.178 -52.234  1.00  0.00     0.145 A 
ENDROOT
BRANCH   2  12
ATOM     12  O   UNL     1      -3.354  -6.316 -55.494  1.00  0.00    -0.508 OA
ATOM     13  H   UNL     1      -4.276  -6.137 -55.263  1.00  0.00     0.293 HD
ENDBRANCH   2  12
BRANCH   4  14
ATOM     14  O   UNL     1       0.504  -3.811 -54.303  1.00  0.00    -0.507 OA
ATOM     15  H   UNL     1       0.769  -4.166 -55.161  1.00  0.00     0.293 HD
ENDBRANCH   4  14
BRANCH   8  16
ATOM     16  C   UNL     1      -0.304  -2.879 -49.168  1.00  0.00    -0.011 A 
ATOM     17  C   UNL     1       0.434  -3.447 -48.131  1.00  0.00     0.013 A 
ATOM     18  C   UNL     1      -0.494  -1.499 -49.209  1.00  0.00     0.013 A 
ATOM     19  C   UNL     1       0.974  -2.643 -47.150  1.00  0.00     0.047 A 
ATOM     20  C   UNL     1       0.045  -0.701 -48.221  1.00  0.00     0.047 A 
ATOM     21  C   UNL     1       0.784  -1.270 -47.194  1.00  0.00     0.115 A 
BRANCH  21  22
ATOM     22  O   UNL     1       1.318  -0.480 -46.224  1.00  0.00    -0.508 OA
ATOM     23  H   UNL     1       0.928  -0.764 -45.387  1.00  0.00     0.293 HD
ENDBRANCH  21  22
ENDBRANCH   8  16
TORSDOF 4

ENDMDL
MODEL 2
REMARK VINA RESULT:    -7.516      1.541      1.871
REMARK INTER + INTRA:          -8.705
REMARK INTER:                  -8.402
REMARK INTRA:                  -0.302
REMARK UNBOUND:                -0.090
REMARK SMILES O=c1c(-c2ccc(O)cc2)coc2cc(O)cc(O)c12
REMARK SMILES IDX 14 1 15 2 17 3 18 4 20 5 2 6 1 7 3 8 11 9 12 10 13 11 16 12
REMARK SMILES IDX 19 14 4 16 5 17 10 18 6 19 9 20 7 21 8 22
REMARK H PARENT 16 13 19 15 8 23
REMARK Flexibility Score: inf
ROOT
ATOM      1  C   UNL     1      -4.249  -4.062 -53.803  1.00  0.00     0.094 A 
ATOM      2  C   UNL     1      -3.958  -3.784 -55.129  1.00  0.00     0.123 A 
ATOM      3  C   UNL     1      -2.713  -3.280 -55.492  1.00  0.00     0.093 A 
ATOM      4  C   UNL     1      -1.750  -3.047 -54.528  1.00  0.00     0.134 A 
ATOM      5  C   UNL     1      -2.040  -3.322 -53.186  1.00  0.00     0.107 A 
ATOM      6  C   UNL     1      -1.056  -3.074 -52.120  1.00  0.00     0.204 A 
ATOM      7  O   UNL     1       0.113  -2.832 -52.368  1.00  0.00    -0.288 OA
ATOM      8  C   UNL     1      -1.560  -3.140 -50.736  1.00  0.00     0.065 A 
ATOM      9  C   UNL     1      -2.799  -3.655 -50.524  1.00  0.00     0.208 A 
ATOM     10  O   UNL     1      -3.559  -4.110 -51.526  1.00  0.00    -0.463 OA
ATOM     11  C   UNL     1      -3.296  -3.838 -52.821  1.00  0.00     0.145 A 
ENDROOT
BRANCH   2  12
ATOM     12  O   UNL     1      -4.897  -4.004 -56.083  1.00  0.00    -0.508 OA
ATOM     13  H   UNL     1      -4.433  -4.030 -56.931  1.00  0.00     0.293 HD
ENDBRANCH   2  12
BRANCH   4  14
ATOM     14  O   UNL     1      -0.534  -2.557 -54.879  1.00  0.00    -0.507 OA
ATOM     15  H   UNL     1      -0.048  -3.284 -55.289  1.00  0.00     0.293 HD
ENDBRANCH   4  14
BRANCH   8  16
ATOM     16  C   UNL     1      -0.735  -2.652 -49.604  1.00  0.00    -0.011 A 
ATOM     17  C   UNL     1      -0.678  -1.289 -49.317  1.00  0.00     0.013 A 
ATOM     18  C   UNL     1      -0.015  -3.555 -48.826  1.00  0.00     0.013 A 
ATOM     19  C   UNL     1       0.091  -0.839 -48.264  1.00  0.00     0.047 A 
ATOM     20  C   UNL     1       0.756  -3.098 -47.777  1.00  0.00     0.047 A 
ATOM     21  C   UNL     1       0.806  -1.741 -47.491  1.00  0.00     0.115 A 
BRANCH  21  22
ATOM     22  O   UNL     1       1.563  -1.294 -46.454  1.00  0.00    -0.508 OA
ATOM     23  H   UNL     1       1.795  -2.067 -45.924  1.00  0.00     0.293 HD
ENDBRANCH  21  22
ENDBRANCH   8  16
TORSDOF 4

ENDMDL
MODEL 3
REMARK VINA RESULT:    -7.346      3.018      3.622
REMARK INTER + INTRA:          -8.509
REMARK INTER:                  -8.322
REMARK INTRA:                  -0.188
REMARK UNBOUND:                -0.090
REMARK SMILES O=c1c(-c2ccc(O)cc2)coc2cc(O)cc(O)c12
REMARK SMILES IDX 14 1 15 2 17 3 18 4 20 5 2 6 1 7 3 8 11 9 12 10 13 11 16 12
REMARK SMILES IDX 19 14 4 16 5 17 10 18 6 19 9 20 7 21 8 22
REMARK H PARENT 16 13 19 15 8 23
REMARK Flexibility Score: inf
ROOT
ATOM      1  C   UNL     1      -3.297  -3.701 -51.659  1.00  0.00     0.094 A 
ATOM      2  C   UNL     1      -3.909  -3.905 -52.885  1.00  0.00     0.123 A 
ATOM      3  C   UNL     1      -3.174  -4.352 -53.978  1.00  0.00     0.093 A 
ATOM      4  C   UNL     1      -1.820  -4.594 -53.853  1.00  0.00     0.134 A 
ATOM      5  C   UNL     1      -1.195  -4.386 -52.618  1.00  0.00     0.107 A 
ATOM      6  C   UNL     1       0.247  -4.612 -52.436  1.00  0.00     0.204 A 
ATOM      7  O   UNL     1       0.917  -5.192 -53.274  1.00  0.00    -0.288 OA
ATOM      8  C   UNL     1       0.838  -4.103 -51.185  1.00  0.00     0.065 A 
ATOM      9  C   UNL     1       0.001  -3.696 -50.196  1.00  0.00     0.208 A 
ATOM     10  O   UNL     1      -1.329  -3.756 -50.322  1.00  0.00    -0.463 OA
ATOM     11  C   UNL     1      -1.940  -3.941 -51.511  1.00  0.00     0.145 A 
ENDROOT
BRANCH   2  12
ATOM     12  O   UNL     1      -5.237  -3.665 -53.021  1.00  0.00    -0.508 OA
ATOM     13  H   UNL     1      -5.428  -2.858 -52.525  1.00  0.00     0.293 HD
ENDBRANCH   2  12
BRANCH   4  14
ATOM     14  O   UNL     1      -1.101  -5.032 -54.918  1.00  0.00    -0.507 OA
ATOM     15  H   UNL     1      -1.730  -5.427 -55.536  1.00  0.00     0.293 HD
ENDBRANCH   4  14
BRANCH   8  16
ATOM     16  C   UNL     1       2.309  -4.035 -51.012  1.00  0.00    -0.011 A 
ATOM     17  C   UNL     1       3.045  -5.203 -50.818  1.00  0.00     0.013 A 
ATOM     18  C   UNL     1       2.959  -2.804 -51.042  1.00  0.00     0.013 A 
ATOM     19  C   UNL     1       4.413  -5.136 -50.657  1.00  0.00     0.047 A 
ATOM     20  C   UNL     1       4.327  -2.743 -50.876  1.00  0.00     0.047 A 
ATOM     21  C   UNL     1       5.057  -3.908 -50.689  1.00  0.00     0.115 A 
BRANCH  21  22
ATOM     22  O   UNL     1       6.406  -3.846 -50.530  1.00  0.00    -0.508 OA
ATOM     23  H   UNL     1       6.799  -4.150 -51.358  1.00  0.00     0.293 HD
ENDBRANCH  21  22
ENDBRANCH   8  16
TORSDOF 4

ENDMDL
MODEL 4
REMARK VINA RESULT:    -7.310      1.770      2.616
REMARK INTER + INTRA:          -8.468
REMARK INTER:                  -8.174
REMARK INTRA:                  -0.293
REMARK UNBOUND:                -0.090
REMARK SMILES O=c1c(-c2ccc(O)cc2)coc2cc(O)cc(O)c12
REMARK SMILES IDX 14 1 15 2 17 3 18 4 20 5 2 6 1 7 3 8 11 9 12 10 13 11 16 12
REMARK SMILES IDX 19 14 4 16 5 17 10 18 6 19 9 20 7 21 8 22
REMARK H PARENT 16 13 19 15 8 23
REMARK Flexibility Score: inf
ROOT
ATOM      1  C   UNL     1      -2.499  -5.767 -54.786  1.00  0.00     0.094 A 
ATOM      2  C   UNL     1      -3.839  -5.572 -55.079  1.00  0.00     0.123 A 
ATOM      3  C   UNL     1      -4.573  -4.592 -54.420  1.00  0.00     0.093 A 
ATOM      4  C   UNL     1      -3.972  -3.801 -53.459  1.00  0.00     0.134 A 
ATOM      5  C   UNL     1      -2.619  -3.996 -53.157  1.00  0.00     0.107 A 
ATOM      6  C   UNL     1      -1.936  -3.194 -52.130  1.00  0.00     0.204 A 
ATOM      7  O   UNL     1      -2.442  -2.190 -51.657  1.00  0.00    -0.288 OA
ATOM      8  C   UNL     1      -0.605  -3.666 -51.707  1.00  0.00     0.065 A 
ATOM      9  C   UNL     1       0.000  -4.634 -52.444  1.00  0.00     0.208 A 
ATOM     10  O   UNL     1      -0.569  -5.154 -53.537  1.00  0.00    -0.463 OA
ATOM     11  C   UNL     1      -1.875  -4.983 -53.828  1.00  0.00     0.145 A 
ENDROOT
BRANCH   2  12
ATOM     12  O   UNL     1      -4.442  -6.347 -56.016  1.00  0.00    -0.508 OA
ATOM     13  H   UNL     1      -5.063  -6.920 -55.547  1.00  0.00     0.293 HD
ENDBRANCH   2  12
BRANCH   4  14
ATOM     14  O   UNL     1      -4.685  -2.843 -52.816  1.00  0.00    -0.507 OA
ATOM     15  H   UNL     1      -5.509  -2.731 -53.308  1.00  0.00     0.293 HD
ENDBRANCH   4  14
BRANCH   8  16
ATOM     16  C   UNL     1       0.056  -3.100 -50.506  1.00  0.00    -0.011 A 
ATOM     17  C   UNL     1       0.865  -1.971 -50.619  1.00  0.00     0.013 A 
ATOM     18  C   UNL     1      -0.130  -3.697 -49.261  1.00  0.00     0.013 A 
ATOM     19  C   UNL     1       1.478  -1.448 -49.500  1.00  0.00     0.047 A 
ATOM     20  C   UNL     1       0.489  -3.172 -48.146  1.00  0.00     0.047 A 
ATOM     21  C   UNL     1       1.289  -2.044 -48.262  1.00  0.00     0.115 A 
BRANCH  21  22
ATOM     22  O   UNL     1       1.895  -1.526 -47.161  1.00  0.00    -0.508 OA
ATOM     23  H   UNL     1       1.284  -0.879 -46.785  1.00  0.00     0.293 HD
ENDBRANCH  21  22
ENDBRANCH   8  16
TORSDOF 4

ENDMDL
MODEL 5
REMARK VINA RESULT:    -7.283      2.333      6.771
REMARK INTER + INTRA:          -8.437
REMARK INTER:                  -8.132
REMARK INTRA:                  -0.305
REMARK UNBOUND:                -0.090
REMARK SMILES O=c1c(-c2ccc(O)cc2)coc2cc(O)cc(O)c12
REMARK SMILES IDX 14 1 15 2 17 3 18 4 20 5 2 6 1 7 3 8 11 9 12 10 13 11 16 12
REMARK SMILES IDX 19 14 4 16 5 17 10 18 6 19 9 20 7 21 8 22
REMARK H PARENT 16 13 19 15 8 23
REMARK Flexibility Score: inf
ROOT
ATOM      1  C   UNL     1       3.645  -2.089 -50.308  1.00  0.00     0.094 A 
ATOM      2  C   UNL     1       3.781  -1.717 -48.980  1.00  0.00     0.123 A 
ATOM      3  C   UNL     1       2.745  -1.924 -48.075  1.00  0.00     0.093 A 
ATOM      4  C   UNL     1       1.562  -2.503 -48.494  1.00  0.00     0.134 A 
ATOM      5  C   UNL     1       1.417  -2.877 -49.836  1.00  0.00     0.107 A 
ATOM      6  C   UNL     1       0.172  -3.480 -50.336  1.00  0.00     0.204 A 
ATOM      7  O   UNL     1      -0.697  -3.880 -49.581  1.00  0.00    -0.288 OA
ATOM      8  C   UNL     1       0.035  -3.578 -51.801  1.00  0.00     0.065 A 
ATOM      9  C   UNL     1       1.131  -3.347 -52.569  1.00  0.00     0.208 A 
ATOM     10  O   UNL     1       2.321  -3.050 -52.035  1.00  0.00    -0.463 OA
ATOM     11  C   UNL     1       2.468  -2.674 -50.748  1.00  0.00     0.145 A 
ENDROOT
BRANCH   2  12
ATOM     12  O   UNL     1       4.936  -1.143 -48.558  1.00  0.00    -0.508 OA
ATOM     13  H   UNL     1       5.508  -1.062 -49.334  1.00  0.00     0.293 HD
ENDBRANCH   2  12
BRANCH   4  14
ATOM     14  O   UNL     1       0.551  -2.707 -47.614  1.00  0.00    -0.507 OA
ATOM     15  H   UNL     1       0.957  -2.856 -46.750  1.00  0.00     0.293 HD
ENDBRANCH   4  14
BRANCH   8  16
ATOM     16  C   UNL     1      -1.270  -3.917 -52.420  1.00  0.00    -0.011 A 
ATOM     17  C   UNL     1      -1.582  -5.243 -52.712  1.00  0.00     0.013 A 
ATOM     18  C   UNL     1      -2.186  -2.909 -52.713  1.00  0.00     0.013 A 
ATOM     19  C   UNL     1      -2.796  -5.555 -53.288  1.00  0.00     0.047 A 
ATOM     20  C   UNL     1      -3.396  -3.226 -53.293  1.00  0.00     0.047 A 
ATOM     21  C   UNL     1      -3.706  -4.549 -53.577  1.00  0.00     0.115 A 
BRANCH  21  22
ATOM     22  O   UNL     1      -4.901  -4.860 -54.145  1.00  0.00    -0.508 OA
ATOM     23  H   UNL     1      -4.742  -4.961 -55.093  1.00  0.00     0.293 HD
ENDBRANCH  21  22
ENDBRANCH   8  16
TORSDOF 4

ENDMDL
MODEL 6
REMARK VINA RESULT:    -6.998      2.911      4.014
REMARK INTER + INTRA:          -8.110
REMARK INTER:                  -8.020
REMARK INTRA:                  -0.090
REMARK UNBOUND:                -0.090
REMARK SMILES O=c1c(-c2ccc(O)cc2)coc2cc(O)cc(O)c12
REMARK SMILES IDX 14 1 15 2 17 3 18 4 20 5 2 6 1 7 3 8 11 9 12 10 13 11 16 12
REMARK SMILES IDX 19 14 4 16 5 17 10 18 6 19 9 20 7 21 8 22
REMARK H PARENT 16 13 19 15 8 23
REMARK Flexibility Score: inf
ROOT
ATOM      1  C   UNL     1      -2.377  -4.898 -54.145  1.00  0.00     0.094 A 
ATOM      2  C   UNL     1      -3.590  -4.629 -53.533  1.00  0.00     0.123 A 
ATOM      3  C   UNL     1      -3.635  -3.995 -52.296  1.00  0.00     0.093 A 
ATOM      4  C   UNL     1      -2.464  -3.628 -51.661  1.00  0.00     0.134 A 
ATOM      5  C   UNL     1      -1.235  -3.901 -52.273  1.00  0.00     0.107 A 
ATOM      6  C   UNL     1       0.041  -3.548 -51.630  1.00  0.00     0.204 A 
ATOM      7  O   UNL     1       0.088  -2.815 -50.656  1.00  0.00    -0.288 OA
ATOM      8  C   UNL     1       1.258  -4.123 -52.230  1.00  0.00     0.065 A 
ATOM      9  C   UNL     1       1.158  -4.718 -53.447  1.00  0.00     0.208 A 
ATOM     10  O   UNL     1      -0.000  -4.783 -54.112  1.00  0.00    -0.463 OA
ATOM     11  C   UNL     1      -1.190  -4.536 -53.526  1.00  0.00     0.145 A 
ENDROOT
BRANCH   2  12
ATOM     12  O   UNL     1      -4.746  -4.990 -54.145  1.00  0.00    -0.508 OA
ATOM     13  H   UNL     1      -4.842  -5.944 -54.022  1.00  0.00     0.293 HD
ENDBRANCH   2  12
BRANCH   4  14
ATOM     14  O   UNL     1      -2.505  -3.007 -50.454  1.00  0.00    -0.507 OA
ATOM     15  H   UNL     1      -1.830  -3.424 -49.903  1.00  0.00     0.293 HD
ENDBRANCH   4  14
BRANCH   8  16
ATOM     16  C   UNL     1       2.559  -4.056 -51.521  1.00  0.00    -0.011 A 
ATOM     17  C   UNL     1       3.148  -2.821 -51.256  1.00  0.00     0.013 A 
ATOM     18  C   UNL     1       3.196  -5.228 -51.119  1.00  0.00     0.013 A 
ATOM     19  C   UNL     1       4.358  -2.763 -50.596  1.00  0.00     0.047 A 
ATOM     20  C   UNL     1       4.408  -5.163 -50.465  1.00  0.00     0.047 A 
ATOM     21  C   UNL     1       4.989  -3.931 -50.197  1.00  0.00     0.115 A 
BRANCH  21  22
ATOM     22  O   UNL     1       6.181  -3.870 -49.547  1.00  0.00    -0.508 OA
ATOM     23  H   UNL     1       6.270  -2.968 -49.211  1.00  0.00     0.293 HD
ENDBRANCH  21  22
ENDBRANCH   8  16
TORSDOF 4

ENDMDL
MODEL 7
REMARK VINA RESULT:    -6.984      2.159      2.885
REMARK INTER + INTRA:          -8.094
REMARK INTER:                  -7.795
REMARK INTRA:                  -0.299
REMARK UNBOUND:                -0.090
REMARK SMILES O=c1c(-c2ccc(O)cc2)coc2cc(O)cc(O)c12
REMARK SMILES IDX 14 1 15 2 17 3 18 4 20 5 2 6 1 7 3 8 11 9 12 10 13 11 16 12
REMARK SMILES IDX 19 14 4 16 5 17 10 18 6 19 9 20 7 21 8 22
REMARK H PARENT 16 13 19 15 8 23
REMARK Flexibility Score: inf
ROOT
ATOM      1  C   UNL     1      -5.332  -3.717 -54.452  1.00  0.00     0.094 A 
ATOM      2  C   UNL     1      -5.323  -4.590 -55.529  1.00  0.00     0.123 A 
ATOM      3  C   UNL     1      -4.304  -5.524 -55.677  1.00  0.00     0.093 A 
ATOM      4  C   UNL     1      -3.281  -5.589 -54.749  1.00  0.00     0.134 A 
ATOM      5  C   UNL     1      -3.282  -4.707 -53.662  1.00  0.00     0.107 A 
ATOM      6  C   UNL     1      -2.207  -4.723 -52.657  1.00  0.00     0.204 A 
ATOM      7  O   UNL     1      -1.396  -5.632 -52.598  1.00  0.00    -0.288 OA
ATOM      8  C   UNL     1      -2.167  -3.583 -51.723  1.00  0.00     0.065 A 
ATOM      9  C   UNL     1      -3.234  -2.744 -51.683  1.00  0.00     0.208 A 
ATOM     10  O   UNL     1      -4.313  -2.931 -52.451  1.00  0.00    -0.463 OA
ATOM     11  C   UNL     1      -4.317  -3.768 -53.509  1.00  0.00     0.145 A 
ENDROOT
BRANCH   2  12
ATOM     12  O   UNL     1      -6.319  -4.532 -56.448  1.00  0.00    -0.508 OA
ATOM     13  H   UNL     1      -6.006  -3.962 -57.164  1.00  0.00     0.293 HD
ENDBRANCH   2  12
BRANCH   4  14
ATOM     14  O   UNL     1      -2.286  -6.501 -54.890  1.00  0.00    -0.507 OA
ATOM     15  H   UNL     1      -1.771  -6.235 -55.664  1.00  0.00     0.293 HD
ENDBRANCH   4  14
BRANCH   8  16
ATOM     16  C   UNL     1      -0.988  -3.357 -50.851  1.00  0.00    -0.011 A 
ATOM     17  C   UNL     1      -1.025  -3.741 -49.512  1.00  0.00     0.013 A 
ATOM     18  C   UNL     1       0.158  -2.758 -51.369  1.00  0.00     0.013 A 
ATOM     19  C   UNL     1       0.073  -3.529 -48.705  1.00  0.00     0.047 A 
ATOM     20  C   UNL     1       1.250  -2.544 -50.555  1.00  0.00     0.047 A 
ATOM     21  C   UNL     1       1.213  -2.934 -49.224  1.00  0.00     0.115 A 
BRANCH  21  22
ATOM     22  O   UNL     1       2.292  -2.725 -48.425  1.00  0.00    -0.508 OA
ATOM     23  H   UNL     1       2.071  -1.986 -47.843  1.00  0.00     0.293 HD
ENDBRANCH  21  22
ENDBRANCH   8  16
TORSDOF 4

ENDMDL
MODEL 8
REMARK VINA RESULT:    -6.904      2.314      6.937
REMARK INTER + INTRA:          -8.003
REMARK INTER:                  -7.696
REMARK INTRA:                  -0.307
REMARK UNBOUND:                -0.090
REMARK SMILES O=c1c(-c2ccc(O)cc2)coc2cc(O)cc(O)c12
REMARK SMILES IDX 14 1 15 2 17 3 18 4 20 5 2 6 1 7 3 8 11 9 12 10 13 11 16 12
REMARK SMILES IDX 19 14 4 16 5 17 10 18 6 19 9 20 7 21 8 22
REMARK H PARENT 16 13 19 15 8 23
REMARK Flexibility Score: inf
ROOT
ATOM      1  C   UNL     1       1.462  -3.016 -49.462  1.00  0.00     0.094 A 
ATOM      2  C   UNL     1       1.479  -1.991 -48.529  1.00  0.00     0.123 A 
ATOM      3  C   UNL     1       0.445  -1.063 -48.476  1.00  0.00     0.093 A 
ATOM      4  C   UNL     1      -0.614  -1.152 -49.359  1.00  0.00     0.134 A 
ATOM      5  C   UNL     1      -0.636  -2.182 -50.306  1.00  0.00     0.107 A 
ATOM      6  C   UNL     1      -1.731  -2.310 -51.280  1.00  0.00     0.204 A 
ATOM      7  O   UNL     1      -2.765  -1.673 -51.172  1.00  0.00    -0.288 OA
ATOM      8  C   UNL     1      -1.512  -3.254 -52.391  1.00  0.00     0.065 A 
ATOM      9  C   UNL     1      -0.458  -4.107 -52.315  1.00  0.00     0.208 A 
ATOM     10  O   UNL     1       0.370  -4.120 -51.265  1.00  0.00    -0.463 OA
ATOM     11  C   UNL     1       0.407  -3.124 -50.355  1.00  0.00     0.145 A 
ENDROOT
BRANCH   2  12
ATOM     12  O   UNL     1       2.517  -1.892 -47.661  1.00  0.00    -0.508 OA
ATOM     13  H   UNL     1       2.405  -2.597 -47.009  1.00  0.00     0.293 HD
ENDBRANCH   2  12
BRANCH   4  14
ATOM     14  O   UNL     1      -1.626  -0.249 -49.307  1.00  0.00    -0.507 OA
ATOM     15  H   UNL     1      -1.911  -0.200 -48.386  1.00  0.00     0.293 HD
ENDBRANCH   4  14
BRANCH   8  16
ATOM     16  C   UNL     1      -2.420  -3.270 -53.564  1.00  0.00    -0.011 A 
ATOM     17  C   UNL     1      -2.230  -2.365 -54.607  1.00  0.00     0.013 A 
ATOM     18  C   UNL     1      -3.466  -4.187 -53.625  1.00  0.00     0.013 A 
ATOM     19  C   UNL     1      -3.076  -2.382 -55.696  1.00  0.00     0.047 A 
ATOM     20  C   UNL     1      -4.312  -4.196 -54.714  1.00  0.00     0.047 A 
ATOM     21  C   UNL     1      -4.116  -3.298 -55.754  1.00  0.00     0.115 A 
BRANCH  21  22
ATOM     22  O   UNL     1      -4.948  -3.311 -56.829  1.00  0.00    -0.508 OA
ATOM     23  H   UNL     1      -5.514  -4.089 -56.734  1.00  0.00     0.293 HD
ENDBRANCH  21  22
ENDBRANCH   8  16
TORSDOF 4

ENDMDL
MODEL 9
REMARK VINA RESULT:    -6.793      2.277      2.487
REMARK INTER + INTRA:          -7.876
REMARK INTER:                  -7.659
REMARK INTRA:                  -0.217
REMARK UNBOUND:                -0.090
REMARK SMILES O=c1c(-c2ccc(O)cc2)coc2cc(O)cc(O)c12
REMARK SMILES IDX 14 1 15 2 17 3 18 4 20 5 2 6 1 7 3 8 11 9 12 10 13 11 16 12
REMARK SMILES IDX 19 14 4 16 5 17 10 18 6 19 9 20 7 21 8 22
REMARK H PARENT 16 13 19 15 8 23
REMARK Flexibility Score: inf
ROOT
ATOM      1  C   UNL     1      -4.043  -3.495 -52.822  1.00  0.00     0.094 A 
ATOM      2  C   UNL     1      -4.125  -4.212 -54.005  1.00  0.00     0.123 A 
ATOM      3  C   UNL     1      -2.991  -4.791 -54.564  1.00  0.00     0.093 A 
ATOM      4  C   UNL     1      -1.763  -4.653 -53.944  1.00  0.00     0.134 A 
ATOM      5  C   UNL     1      -1.673  -3.926 -52.751  1.00  0.00     0.107 A 
ATOM      6  C   UNL     1      -0.387  -3.735 -52.062  1.00  0.00     0.204 A 
ATOM      7  O   UNL     1       0.607  -4.372 -52.367  1.00  0.00    -0.288 OA
ATOM      8  C   UNL     1      -0.367  -2.734 -50.979  1.00  0.00     0.065 A 
ATOM      9  C   UNL     1      -1.553  -2.248 -50.528  1.00  0.00     0.208 A 
ATOM     10  O   UNL     1      -2.724  -2.659 -51.027  1.00  0.00    -0.463 OA
ATOM     11  C   UNL     1      -2.821  -3.347 -52.183  1.00  0.00     0.145 A 
ENDROOT
BRANCH   2  12
ATOM     12  O   UNL     1      -5.324  -4.349 -54.625  1.00  0.00    -0.508 OA
ATOM     13  H   UNL     1      -5.382  -3.642 -55.282  1.00  0.00     0.293 HD
ENDBRANCH   2  12
BRANCH   4  14
ATOM     14  O   UNL     1      -0.655  -5.219 -54.487  1.00  0.00    -0.507 OA
ATOM     15  H   UNL     1      -0.430  -5.979 -53.934  1.00  0.00     0.293 HD
ENDBRANCH   4  14
BRANCH   8  16
ATOM     16  C   UNL     1       0.916  -2.269 -50.399  1.00  0.00    -0.011 A 
ATOM     17  C   UNL     1       1.819  -1.554 -51.184  1.00  0.00     0.013 A 
ATOM     18  C   UNL     1       1.223  -2.546 -49.069  1.00  0.00     0.013 A 
ATOM     19  C   UNL     1       3.012  -1.123 -50.642  1.00  0.00     0.047 A 
ATOM     20  C   UNL     1       2.419  -2.117 -48.535  1.00  0.00     0.047 A 
ATOM     21  C   UNL     1       3.313  -1.400 -49.317  1.00  0.00     0.115 A 
BRANCH  21  22
ATOM     22  O   UNL     1       4.490  -0.974 -48.786  1.00  0.00    -0.508 OA
ATOM     23  H   UNL     1       5.182  -1.542 -49.149  1.00  0.00     0.293 HD
ENDBRANCH  21  22
ENDBRANCH   8  16
TORSDOF 4

ENDMDL
MODEL 10
REMARK VINA RESULT:    -6.380      2.629      3.752
REMARK INTER + INTRA:          -7.402
REMARK INTER:                  -7.271
REMARK INTRA:                  -0.131
REMARK UNBOUND:                -0.090
REMARK SMILES O=c1c(-c2ccc(O)cc2)coc2cc(O)cc(O)c12
REMARK SMILES IDX 14 1 15 2 17 3 18 4 20 5 2 6 1 7 3 8 11 9 12 10 13 11 16 12
REMARK SMILES IDX 19 14 4 16 5 17 10 18 6 19 9 20 7 21 8 22
REMARK H PARENT 16 13 19 15 8 23
REMARK Flexibility Score: inf
ROOT
ATOM      1  C   UNL     1      -5.314  -4.388 -54.583  1.00  0.00     0.094 A 
ATOM      2  C   UNL     1      -5.681  -3.536 -55.613  1.00  0.00     0.123 A 
ATOM      3  C   UNL     1      -4.756  -2.664 -56.176  1.00  0.00     0.093 A 
ATOM      4  C   UNL     1      -3.456  -2.634 -55.709  1.00  0.00     0.134 A 
ATOM      5  C   UNL     1      -3.080  -3.489 -54.666  1.00  0.00     0.107 A 
ATOM      6  C   UNL     1      -1.713  -3.484 -54.121  1.00  0.00     0.204 A 
ATOM      7  O   UNL     1      -0.799  -2.907 -54.685  1.00  0.00    -0.288 OA
ATOM      8  C   UNL     1      -1.508  -4.219 -52.860  1.00  0.00     0.065 A 
ATOM      9  C   UNL     1      -2.499  -5.039 -52.422  1.00  0.00     0.208 A 
ATOM     10  O   UNL     1      -3.637  -5.204 -53.106  1.00  0.00    -0.463 OA
ATOM     11  C   UNL     1      -4.014  -4.376 -54.103  1.00  0.00     0.145 A 
ENDROOT
BRANCH   2  12
ATOM     12  O   UNL     1      -6.957  -3.553 -56.076  1.00  0.00    -0.508 OA
ATOM     13  H   UNL     1      -7.270  -2.638 -56.065  1.00  0.00     0.293 HD
ENDBRANCH   2  12
BRANCH   4  14
ATOM     14  O   UNL     1      -2.551  -1.785 -56.258  1.00  0.00    -0.507 OA
ATOM     15  H   UNL     1      -2.781  -0.897 -55.955  1.00  0.00     0.293 HD
ENDBRANCH   4  14
BRANCH   8  16
ATOM     16  C   UNL     1      -0.253  -4.063 -52.086  1.00  0.00    -0.011 A 
ATOM     17  C   UNL     1      -0.272  -3.441 -50.839  1.00  0.00     0.013 A 
ATOM     18  C   UNL     1       0.950  -4.537 -52.604  1.00  0.00     0.013 A 
ATOM     19  C   UNL     1       0.897  -3.298 -50.122  1.00  0.00     0.047 A 
ATOM     20  C   UNL     1       2.117  -4.387 -51.885  1.00  0.00     0.047 A 
ATOM     21  C   UNL     1       2.093  -3.772 -50.641  1.00  0.00     0.115 A 
BRANCH  21  22
ATOM     22  O   UNL     1       3.244  -3.629 -49.932  1.00  0.00    -0.508 OA
ATOM     23  H   UNL     1       3.302  -2.698 -49.680  1.00  0.00     0.293 HD
ENDBRANCH  21  22
ENDBRANCH   8  16
TORSDOF 4

ENDMDL
MODEL 11
REMARK VINA RESULT:    -6.306      2.879      3.995
REMARK INTER + INTRA:          -7.318
REMARK INTER:                  -7.022
REMARK INTRA:                  -0.296
REMARK UNBOUND:                -0.090
REMARK SMILES O=c1c(-c2ccc(O)cc2)coc2cc(O)cc(O)c12
REMARK SMILES IDX 14 1 15 2 17 3 18 4 20 5 2 6 1 7 3 8 11 9 12 10 13 11 16 12
REMARK SMILES IDX 19 14 4 16 5 17 10 18 6 19 9 20 7 21 8 22
REMARK H PARENT 16 13 19 15 8 23
REMARK Flexibility Score: inf
ROOT
ATOM      1  C   UNL     1      -4.357  -3.277 -55.701  1.00  0.00     0.094 A 
ATOM      2  C   UNL     1      -5.722  -3.518 -55.712  1.00  0.00     0.123 A 
ATOM      3  C   UNL     1      -6.452  -3.515 -54.528  1.00  0.00     0.093 A 
ATOM      4  C   UNL     1      -5.820  -3.273 -53.323  1.00  0.00     0.134 A 
ATOM      5  C   UNL     1      -4.441  -3.033 -53.305  1.00  0.00     0.107 A 
ATOM      6  C   UNL     1      -3.718  -2.789 -52.048  1.00  0.00     0.204 A 
ATOM      7  O   UNL     1      -4.304  -2.567 -51.002  1.00  0.00    -0.288 OA
ATOM      8  C   UNL     1      -2.245  -2.822 -52.121  1.00  0.00     0.065 A 
ATOM      9  C   UNL     1      -1.661  -2.824 -53.347  1.00  0.00     0.208 A 
ATOM     10  O   UNL     1      -2.378  -2.785 -54.475  1.00  0.00    -0.463 OA
ATOM     11  C   UNL     1      -3.705  -3.030 -54.503  1.00  0.00     0.145 A 
ENDROOT
BRANCH   2  12
ATOM     12  O   UNL     1      -6.352  -3.762 -56.889  1.00  0.00    -0.508 OA
ATOM     13  H   UNL     1      -6.246  -4.706 -57.072  1.00  0.00     0.293 HD
ENDBRANCH   2  12
BRANCH   4  14
ATOM     14  O   UNL     1      -6.530  -3.268 -52.166  1.00  0.00    -0.507 OA
ATOM     15  H   UNL     1      -6.013  -3.764 -51.518  1.00  0.00     0.293 HD
ENDBRANCH   4  14
BRANCH   8  16
ATOM     16  C   UNL     1      -1.424  -2.855 -50.887  1.00  0.00    -0.011 A 
ATOM     17  C   UNL     1      -0.805  -1.693 -50.427  1.00  0.00     0.013 A 
ATOM     18  C   UNL     1      -1.268  -4.047 -50.184  1.00  0.00     0.013 A 
ATOM     19  C   UNL     1      -0.042  -1.728 -49.279  1.00  0.00     0.047 A 
ATOM     20  C   UNL     1      -0.499  -4.077 -49.040  1.00  0.00     0.047 A 
ATOM     21  C   UNL     1       0.111  -2.917 -48.582  1.00  0.00     0.115 A 
BRANCH  21  22
ATOM     22  O   UNL     1       0.864  -2.948 -47.451  1.00  0.00    -0.508 OA
ATOM     23  H   UNL     1       0.356  -3.436 -46.790  1.00  0.00     0.293 HD
ENDBRANCH  21  22
ENDBRANCH   8  16
TORSDOF 4

ENDMDL
MODEL 12
REMARK VINA RESULT:    -6.128     19.417     24.387
REMARK INTER + INTRA:          -7.113
REMARK INTER:                  -6.805
REMARK INTRA:                  -0.308
REMARK UNBOUND:                -0.090
REMARK SMILES O=c1c(-c2ccc(O)cc2)coc2cc(O)cc(O)c12
REMARK SMILES IDX 14 1 15 2 17 3 18 4 20 5 2 6 1 7 3 8 11 9 12 10 13 11 16 12
REMARK SMILES IDX 19 14 4 16 5 17 10 18 6 19 9 20 7 21 8 22
REMARK H PARENT 16 13 19 15 8 23
REMARK Flexibility Score: inf
ROOT
ATOM      1  C   UNL     1       4.244  -2.706 -24.771  1.00  0.00     0.094 A 
ATOM      2  C   UNL     1       3.604  -2.194 -23.654  1.00  0.00     0.123 A 
ATOM      3  C   UNL     1       2.351  -1.600 -23.764  1.00  0.00     0.093 A 
ATOM      4  C   UNL     1       1.730  -1.511 -24.995  1.00  0.00     0.134 A 
ATOM      5  C   UNL     1       2.373  -2.024 -26.129  1.00  0.00     0.107 A 
ATOM      6  C   UNL     1       1.763  -1.938 -27.465  1.00  0.00     0.204 A 
ATOM      7  O   UNL     1       0.595  -1.624 -27.619  1.00  0.00    -0.288 OA
ATOM      8  C   UNL     1       2.640  -2.258 -28.606  1.00  0.00     0.065 A 
ATOM      9  C   UNL     1       3.843  -2.836 -28.354  1.00  0.00     0.208 A 
ATOM     10  O   UNL     1       4.241  -3.131 -27.112  1.00  0.00    -0.463 OA
ATOM     11  C   UNL     1       3.637  -2.630 -26.015  1.00  0.00     0.145 A 
ENDROOT
BRANCH   2  12
ATOM     12  O   UNL     1       4.206  -2.270 -22.441  1.00  0.00    -0.508 OA
ATOM     13  H   UNL     1       4.583  -1.398 -22.260  1.00  0.00     0.293 HD
ENDBRANCH   2  12
BRANCH   4  14
ATOM     14  O   UNL     1       0.507  -0.934 -25.105  1.00  0.00    -0.507 OA
ATOM     15  H   UNL     1       0.655  -0.001 -25.309  1.00  0.00     0.293 HD
ENDBRANCH   4  14
BRANCH   8  16
ATOM     16  C   UNL     1       2.219  -1.952 -29.995  1.00  0.00    -0.011 A 
ATOM     17  C   UNL     1       2.415  -0.675 -30.520  1.00  0.00     0.013 A 
ATOM     18  C   UNL     1       1.625  -2.939 -30.778  1.00  0.00     0.013 A 
ATOM     19  C   UNL     1       2.022  -0.394 -31.812  1.00  0.00     0.047 A 
ATOM     20  C   UNL     1       1.230  -2.650 -32.068  1.00  0.00     0.047 A 
ATOM     21  C   UNL     1       1.432  -1.380 -32.589  1.00  0.00     0.115 A 
BRANCH  21  22
ATOM     22  O   UNL     1       1.046  -1.099 -33.862  1.00  0.00    -0.508 OA
ATOM     23  H   UNL     1       0.956  -0.139 -33.920  1.00  0.00     0.293 HD
ENDBRANCH  21  22
ENDBRANCH   8  16
TORSDOF 4

ENDMDL
MODEL 13
REMARK VINA RESULT:    -6.092     25.332     26.830
REMARK INTER + INTRA:          -7.072
REMARK INTER:                  -6.794
REMARK INTRA:                  -0.278
REMARK UNBOUND:                -0.090
REMARK SMILES O=c1c(-c2ccc(O)cc2)coc2cc(O)cc(O)c12
REMARK SMILES IDX 14 1 15 2 17 3 18 4 20 5 2 6 1 7 3 8 11 9 12 10 13 11 16 12
REMARK SMILES IDX 19 14 4 16 5 17 10 18 6 19 9 20 7 21 8 22
REMARK H PARENT 16 13 19 15 8 23
REMARK Flexibility Score: inf
ROOT
ATOM      1  C   UNL     1     -15.714 -13.756 -31.001  1.00  0.00     0.094 A 
ATOM      2  C   UNL     1     -16.404 -12.683 -31.542  1.00  0.00     0.123 A 
ATOM      3  C   UNL     1     -16.955 -12.763 -32.816  1.00  0.00     0.093 A 
ATOM      4  C   UNL     1     -16.817 -13.918 -33.562  1.00  0.00     0.134 A 
ATOM      5  C   UNL     1     -16.117 -15.004 -33.023  1.00  0.00     0.107 A 
ATOM      6  C   UNL     1     -15.925 -16.249 -33.783  1.00  0.00     0.204 A 
ATOM      7  O   UNL     1     -16.542 -16.477 -34.810  1.00  0.00    -0.288 OA
ATOM      8  C   UNL     1     -14.950 -17.209 -33.232  1.00  0.00     0.065 A 
ATOM      9  C   UNL     1     -14.490 -17.009 -31.970  1.00  0.00     0.208 A 
ATOM     10  O   UNL     1     -14.904 -15.983 -31.219  1.00  0.00    -0.463 OA
ATOM     11  C   UNL     1     -15.566 -14.925 -31.732  1.00  0.00     0.145 A 
ENDROOT
BRANCH   2  12
ATOM     12  O   UNL     1     -16.542 -11.542 -30.820  1.00  0.00    -0.508 OA
ATOM     13  H   UNL     1     -16.508 -10.808 -31.449  1.00  0.00     0.293 HD
ENDBRANCH   2  12
BRANCH   4  14
ATOM     14  O   UNL     1     -17.355 -13.999 -34.805  1.00  0.00    -0.507 OA
ATOM     15  H   UNL     1     -17.761 -13.142 -34.990  1.00  0.00     0.293 HD
ENDBRANCH   4  14
BRANCH   8  16
ATOM     16  C   UNL     1     -14.482 -18.362 -34.039  1.00  0.00    -0.011 A 
ATOM     17  C   UNL     1     -14.936 -19.648 -33.751  1.00  0.00     0.013 A 
ATOM     18  C   UNL     1     -13.584 -18.163 -35.086  1.00  0.00     0.013 A 
ATOM     19  C   UNL     1     -14.498 -20.718 -34.503  1.00  0.00     0.047 A 
ATOM     20  C   UNL     1     -13.146 -19.238 -35.831  1.00  0.00     0.047 A 
ATOM     21  C   UNL     1     -13.606 -20.516 -35.545  1.00  0.00     0.115 A 
BRANCH  21  22
ATOM     22  O   UNL     1     -13.176 -21.573 -36.283  1.00  0.00    -0.508 OA
ATOM     23  H   UNL     1     -13.145 -21.277 -37.203  1.00  0.00     0.293 HD
ENDBRANCH  21  22
ENDBRANCH   8  16
TORSDOF 4

ENDMDL
MODEL 14
REMARK VINA RESULT:    -6.024      3.380      4.202
REMARK INTER + INTRA:          -6.994
REMARK INTER:                  -6.988
REMARK INTRA:                  -0.006
REMARK UNBOUND:                -0.090
REMARK SMILES O=c1c(-c2ccc(O)cc2)coc2cc(O)cc(O)c12
REMARK SMILES IDX 14 1 15 2 17 3 18 4 20 5 2 6 1 7 3 8 11 9 12 10 13 11 16 12
REMARK SMILES IDX 19 14 4 16 5 17 10 18 6 19 9 20 7 21 8 22
REMARK H PARENT 16 13 19 15 8 23
REMARK Flexibility Score: inf
ROOT
ATOM      1  C   UNL     1      -5.827  -2.582 -51.899  1.00  0.00     0.094 A 
ATOM      2  C   UNL     1      -6.283  -1.683 -52.850  1.00  0.00     0.123 A 
ATOM      3  C   UNL     1      -5.414  -1.147 -53.793  1.00  0.00     0.093 A 
ATOM      4  C   UNL     1      -4.079  -1.505 -53.791  1.00  0.00     0.134 A 
ATOM      5  C   UNL     1      -3.611  -2.410 -52.830  1.00  0.00     0.107 A 
ATOM      6  C   UNL     1      -2.196  -2.809 -52.772  1.00  0.00     0.204 A 
ATOM      7  O   UNL     1      -1.419  -2.551 -53.675  1.00  0.00    -0.288 OA
ATOM      8  C   UNL     1      -1.771  -3.542 -51.565  1.00  0.00     0.065 A 
ATOM      9  C   UNL     1      -2.729  -4.010 -50.724  1.00  0.00     0.208 A 
ATOM     10  O   UNL     1      -4.033  -3.837 -50.967  1.00  0.00    -0.463 OA
ATOM     11  C   UNL     1      -4.492  -2.956 -51.880  1.00  0.00     0.145 A 
ENDROOT
BRANCH   2  12
ATOM     12  O   UNL     1      -7.591  -1.321 -52.859  1.00  0.00    -0.508 OA
ATOM     13  H   UNL     1      -8.093  -2.077 -52.526  1.00  0.00     0.293 HD
ENDBRANCH   2  12
BRANCH   4  14
ATOM     14  O   UNL     1      -3.228  -0.985 -54.711  1.00  0.00    -0.507 OA
ATOM     15  H   UNL     1      -3.210  -0.030 -54.567  1.00  0.00     0.293 HD
ENDBRANCH   4  14
BRANCH   8  16
ATOM     16  C   UNL     1      -0.333  -3.759 -51.276  1.00  0.00    -0.011 A 
ATOM     17  C   UNL     1       0.212  -3.321 -50.070  1.00  0.00     0.013 A 
ATOM     18  C   UNL     1       0.478  -4.399 -52.210  1.00  0.00     0.013 A 
ATOM     19  C   UNL     1       1.550  -3.524 -49.805  1.00  0.00     0.047 A 
ATOM     20  C   UNL     1       1.816  -4.595 -51.942  1.00  0.00     0.047 A 
ATOM     21  C   UNL     1       2.354  -4.163 -50.737  1.00  0.00     0.115 A 
BRANCH  21  22
ATOM     22  O   UNL     1       3.673  -4.361 -50.473  1.00  0.00    -0.508 OA
ATOM     23  H   UNL     1       3.863  -5.285 -50.681  1.00  0.00     0.293 HD
ENDBRANCH  21  22
ENDBRANCH   8  16
TORSDOF 4

ENDMDL
MODEL 15
REMARK VINA RESULT:    -5.991     24.485     26.725
REMARK INTER + INTRA:          -6.956
REMARK INTER:                  -6.659
REMARK INTRA:                  -0.297
REMARK UNBOUND:                -0.090
REMARK SMILES O=c1c(-c2ccc(O)cc2)coc2cc(O)cc(O)c12
REMARK SMILES IDX 14 1 15 2 17 3 18 4 20 5 2 6 1 7 3 8 11 9 12 10 13 11 16 12
REMARK SMILES IDX 19 14 4 16 5 17 10 18 6 19 9 20 7 21 8 22
REMARK H PARENT 16 13 19 15 8 23
REMARK Flexibility Score: inf
ROOT
ATOM      1  C   UNL     1       8.372 -14.311 -30.046  1.00  0.00     0.094 A 
ATOM      2  C   UNL     1       8.672 -14.683 -31.347  1.00  0.00     0.123 A 
ATOM      3  C   UNL     1       9.893 -14.342 -31.918  1.00  0.00     0.093 A 
ATOM      4  C   UNL     1      10.823 -13.622 -31.192  1.00  0.00     0.134 A 
ATOM      5  C   UNL     1      10.524 -13.239 -29.879  1.00  0.00     0.107 A 
ATOM      6  C   UNL     1      11.472 -12.457 -29.071  1.00  0.00     0.204 A 
ATOM      7  O   UNL     1      12.630 -12.295 -29.415  1.00  0.00    -0.288 OA
ATOM      8  C   UNL     1      10.946 -11.883 -27.818  1.00  0.00     0.065 A 
ATOM      9  C   UNL     1       9.734 -12.305 -27.374  1.00  0.00     0.208 A 
ATOM     10  O   UNL     1       9.020 -13.227 -28.029  1.00  0.00    -0.463 OA
ATOM     11  C   UNL     1       9.292 -13.590 -29.300  1.00  0.00     0.145 A 
ENDROOT
BRANCH   2  12
ATOM     12  O   UNL     1       7.764 -15.385 -32.071  1.00  0.00    -0.508 OA
ATOM     13  H   UNL     1       7.494 -16.137 -31.526  1.00  0.00     0.293 HD
ENDBRANCH   2  12
BRANCH   4  14
ATOM     14  O   UNL     1      12.016 -13.289 -31.747  1.00  0.00    -0.507 OA
ATOM     15  H   UNL     1      12.677 -13.351 -31.045  1.00  0.00     0.293 HD
ENDBRANCH   4  14
BRANCH   8  16
ATOM     16  C   UNL     1      11.721 -10.867 -27.064  1.00  0.00    -0.011 A 
ATOM     17  C   UNL     1      11.730  -9.539 -27.488  1.00  0.00     0.013 A 
ATOM     18  C   UNL     1      12.443 -11.239 -25.933  1.00  0.00     0.013 A 
ATOM     19  C   UNL     1      12.452  -8.597 -26.785  1.00  0.00     0.047 A 
ATOM     20  C   UNL     1      13.167 -10.293 -25.237  1.00  0.00     0.047 A 
ATOM     21  C   UNL     1      13.169  -8.971 -25.658  1.00  0.00     0.115 A 
BRANCH  21  22
ATOM     22  O   UNL     1      13.880  -8.040 -24.968  1.00  0.00    -0.508 OA
ATOM     23  H   UNL     1      14.081  -8.426 -24.105  1.00  0.00     0.293 HD
ENDBRANCH  21  22
ENDBRANCH   8  16
TORSDOF 4

ENDMDL
MODEL 16
REMARK VINA RESULT:    -5.918      5.029      6.374
REMARK INTER + INTRA:          -6.872
REMARK INTER:                  -6.602
REMARK INTRA:                  -0.271
REMARK UNBOUND:                -0.090
REMARK SMILES O=c1c(-c2ccc(O)cc2)coc2cc(O)cc(O)c12
REMARK SMILES IDX 14 1 15 2 17 3 18 4 20 5 2 6 1 7 3 8 11 9 12 10 13 11 16 12
REMARK SMILES IDX 19 14 4 16 5 17 10 18 6 19 9 20 7 21 8 22
REMARK H PARENT 16 13 19 15 8 23
REMARK Flexibility Score: inf
ROOT
ATOM      1  C   UNL     1       0.864  -1.682 -50.301  1.00  0.00     0.094 A 
ATOM      2  C   UNL     1      -0.172  -2.054 -51.143  1.00  0.00     0.123 A 
ATOM      3  C   UNL     1      -0.095  -3.226 -51.887  1.00  0.00     0.093 A 
ATOM      4  C   UNL     1       1.021  -4.036 -51.795  1.00  0.00     0.134 A 
ATOM      5  C   UNL     1       2.073  -3.664 -50.949  1.00  0.00     0.107 A 
ATOM      6  C   UNL     1       3.290  -4.480 -50.829  1.00  0.00     0.204 A 
ATOM      7  O   UNL     1       3.352  -5.612 -51.281  1.00  0.00    -0.288 OA
ATOM      8  C   UNL     1       4.430  -3.859 -50.130  1.00  0.00     0.065 A 
ATOM      9  C   UNL     1       4.214  -2.709 -49.441  1.00  0.00     0.208 A 
ATOM     10  O   UNL     1       3.006  -2.140 -49.371  1.00  0.00    -0.463 OA
ATOM     11  C   UNL     1       1.992  -2.481 -50.192  1.00  0.00     0.145 A 
ENDROOT
BRANCH   2  12
ATOM     12  O   UNL     1      -1.271  -1.264 -51.245  1.00  0.00    -0.508 OA
ATOM     13  H   UNL     1      -1.857  -1.506 -50.515  1.00  0.00     0.293 HD
ENDBRANCH   2  12
BRANCH   4  14
ATOM     14  O   UNL     1       1.098  -5.182 -52.518  1.00  0.00    -0.507 OA
ATOM     15  H   UNL     1       1.137  -4.923 -53.448  1.00  0.00     0.293 HD
ENDBRANCH   4  14
BRANCH   8  16
ATOM     16  C   UNL     1       5.779  -4.473 -50.181  1.00  0.00    -0.011 A 
ATOM     17  C   UNL     1       6.114  -5.499 -49.298  1.00  0.00     0.013 A 
ATOM     18  C   UNL     1       6.715  -4.026 -51.110  1.00  0.00     0.013 A 
ATOM     19  C   UNL     1       7.370  -6.067 -49.348  1.00  0.00     0.047 A 
ATOM     20  C   UNL     1       7.970  -4.595 -51.152  1.00  0.00     0.047 A 
ATOM     21  C   UNL     1       8.298  -5.620 -50.276  1.00  0.00     0.115 A 
BRANCH  21  22
ATOM     22  O   UNL     1       9.535  -6.183 -50.322  1.00  0.00    -0.508 OA
ATOM     23  H   UNL     1      10.109  -5.642 -49.763  1.00  0.00     0.293 HD
ENDBRANCH  21  22
ENDBRANCH   8  16
TORSDOF 4

ENDMDL
MODEL 17
REMARK VINA RESULT:    -5.910     21.162     22.605
REMARK INTER + INTRA:          -6.864
REMARK INTER:                  -6.774
REMARK INTRA:                  -0.090
REMARK UNBOUND:                -0.090
REMARK SMILES O=c1c(-c2ccc(O)cc2)coc2cc(O)cc(O)c12
REMARK SMILES IDX 14 1 15 2 17 3 18 4 20 5 2 6 1 7 3 8 11 9 12 10 13 11 16 12
REMARK SMILES IDX 19 14 4 16 5 17 10 18 6 19 9 20 7 21 8 22
REMARK H PARENT 16 13 19 15 8 23
REMARK Flexibility Score: inf
ROOT
ATOM      1  C   UNL     1      10.412 -18.707 -45.158  1.00  0.00     0.094 A 
ATOM      2  C   UNL     1      11.298 -18.698 -44.092  1.00  0.00     0.123 A 
ATOM      3  C   UNL     1      11.774 -19.890 -43.556  1.00  0.00     0.093 A 
ATOM      4  C   UNL     1      11.364 -21.101 -44.081  1.00  0.00     0.134 A 
ATOM      5  C   UNL     1      10.466 -21.116 -45.155  1.00  0.00     0.107 A 
ATOM      6  C   UNL     1       9.985 -22.378 -45.738  1.00  0.00     0.204 A 
ATOM      7  O   UNL     1      10.502 -23.449 -45.469  1.00  0.00    -0.288 OA
ATOM      8  C   UNL     1       8.846 -22.277 -46.670  1.00  0.00     0.065 A 
ATOM      9  C   UNL     1       8.484 -21.046 -47.115  1.00  0.00     0.208 A 
ATOM     10  O   UNL     1       9.135 -19.938 -46.744  1.00  0.00    -0.463 OA
ATOM     11  C   UNL     1       9.990 -19.911 -45.701  1.00  0.00     0.145 A 
ENDROOT
BRANCH   2  12
ATOM     12  O   UNL     1      11.703 -17.515 -43.565  1.00  0.00    -0.508 OA
ATOM     13  H   UNL     1      11.928 -16.940 -44.310  1.00  0.00     0.293 HD
ENDBRANCH   2  12
BRANCH   4  14
ATOM     14  O   UNL     1      11.828 -22.265 -43.561  1.00  0.00    -0.507 OA
ATOM     15  H   UNL     1      11.059 -22.758 -43.248  1.00  0.00     0.293 HD
ENDBRANCH   4  14
BRANCH   8  16
ATOM     16  C   UNL     1       8.113 -23.490 -47.107  1.00  0.00    -0.011 A 
ATOM     17  C   UNL     1       8.766 -24.473 -47.848  1.00  0.00     0.013 A 
ATOM     18  C   UNL     1       6.768 -23.649 -46.778  1.00  0.00     0.013 A 
ATOM     19  C   UNL     1       8.081 -25.599 -48.253  1.00  0.00     0.047 A 
ATOM     20  C   UNL     1       6.087 -24.775 -47.191  1.00  0.00     0.047 A 
ATOM     21  C   UNL     1       6.743 -25.755 -47.923  1.00  0.00     0.115 A 
BRANCH  21  22
ATOM     22  O   UNL     1       6.070 -26.866 -48.325  1.00  0.00    -0.508 OA
ATOM     23  H   UNL     1       5.655 -26.650 -49.170  1.00  0.00     0.293 HD
ENDBRANCH  21  22
ENDBRANCH   8  16
TORSDOF 4

ENDMDL
MODEL 18
REMARK VINA RESULT:    -5.891     25.271     26.501
REMARK INTER + INTRA:          -6.842
REMARK INTER:                  -6.544
REMARK INTRA:                  -0.298
REMARK UNBOUND:                -0.090
REMARK SMILES O=c1c(-c2ccc(O)cc2)coc2cc(O)cc(O)c12
REMARK SMILES IDX 14 1 15 2 17 3 18 4 20 5 2 6 1 7 3 8 11 9 12 10 13 11 16 12
REMARK SMILES IDX 19 14 4 16 5 17 10 18 6 19 9 20 7 21 8 22
REMARK H PARENT 16 13 19 15 8 23
REMARK Flexibility Score: inf
ROOT
ATOM      1  C   UNL     1       8.040 -24.699 -46.168  1.00  0.00     0.094 A 
ATOM      2  C   UNL     1       7.213 -23.697 -46.650  1.00  0.00     0.123 A 
ATOM      3  C   UNL     1       5.926 -23.990 -47.087  1.00  0.00     0.093 A 
ATOM      4  C   UNL     1       5.457 -25.289 -47.048  1.00  0.00     0.134 A 
ATOM      5  C   UNL     1       6.290 -26.307 -46.566  1.00  0.00     0.107 A 
ATOM      6  C   UNL     1       5.846 -27.708 -46.521  1.00  0.00     0.204 A 
ATOM      7  O   UNL     1       4.678 -28.018 -46.688  1.00  0.00    -0.288 OA
ATOM      8  C   UNL     1       6.888 -28.717 -46.257  1.00  0.00     0.065 A 
ATOM      9  C   UNL     1       8.107 -28.291 -45.836  1.00  0.00     0.208 A 
ATOM     10  O   UNL     1       8.378 -26.996 -45.644  1.00  0.00    -0.463 OA
ATOM     11  C   UNL     1       7.589 -26.009 -46.118  1.00  0.00     0.145 A 
ENDROOT
BRANCH   2  12
ATOM     12  O   UNL     1       7.664 -22.419 -46.698  1.00  0.00    -0.508 OA
ATOM     13  H   UNL     1       7.842 -22.220 -47.627  1.00  0.00     0.293 HD
ENDBRANCH   2  12
BRANCH   4  14
ATOM     14  O   UNL     1       4.200 -25.577 -47.472  1.00  0.00    -0.507 OA
ATOM     15  H   UNL     1       4.207 -25.506 -48.436  1.00  0.00     0.293 HD
ENDBRANCH   4  14
BRANCH   8  16
ATOM     16  C   UNL     1       6.612 -30.162 -46.451  1.00  0.00    -0.011 A 
ATOM     17  C   UNL     1       6.629 -30.711 -47.732  1.00  0.00     0.013 A 
ATOM     18  C   UNL     1       6.334 -30.973 -45.353  1.00  0.00     0.013 A 
ATOM     19  C   UNL     1       6.371 -32.055 -47.908  1.00  0.00     0.047 A 
ATOM     20  C   UNL     1       6.073 -32.314 -45.537  1.00  0.00     0.047 A 
ATOM     21  C   UNL     1       6.096 -32.859 -46.813  1.00  0.00     0.115 A 
BRANCH  21  22
ATOM     22  O   UNL     1       5.843 -34.183 -46.991  1.00  0.00    -0.508 OA
ATOM     23  H   UNL     1       5.155 -34.247 -47.666  1.00  0.00     0.293 HD
ENDBRANCH  21  22
ENDBRANCH   8  16
TORSDOF 4

ENDMDL
MODEL 19
REMARK VINA RESULT:    -5.877     16.773     18.804
REMARK INTER + INTRA:          -6.826
REMARK INTER:                  -6.542
REMARK INTRA:                  -0.283
REMARK UNBOUND:                -0.090
REMARK SMILES O=c1c(-c2ccc(O)cc2)coc2cc(O)cc(O)c12
REMARK SMILES IDX 14 1 15 2 17 3 18 4 20 5 2 6 1 7 3 8 11 9 12 10 13 11 16 12
REMARK SMILES IDX 19 14 4 16 5 17 10 18 6 19 9 20 7 21 8 22
REMARK H PARENT 16 13 19 15 8 23
REMARK Flexibility Score: inf
ROOT
ATOM      1  C   UNL     1      -3.157  14.487 -53.871  1.00  0.00     0.094 A 
ATOM      2  C   UNL     1      -3.213  15.819 -54.250  1.00  0.00     0.123 A 
ATOM      3  C   UNL     1      -4.426  16.410 -54.588  1.00  0.00     0.093 A 
ATOM      4  C   UNL     1      -5.592  15.670 -54.553  1.00  0.00     0.134 A 
ATOM      5  C   UNL     1      -5.541  14.323 -54.176  1.00  0.00     0.107 A 
ATOM      6  C   UNL     1      -6.752  13.487 -54.140  1.00  0.00     0.204 A 
ATOM      7  O   UNL     1      -7.869  13.969 -54.221  1.00  0.00    -0.288 OA
ATOM      8  C   UNL     1      -6.541  12.034 -53.998  1.00  0.00     0.065 A 
ATOM      9  C   UNL     1      -5.300  11.592 -53.665  1.00  0.00     0.208 A 
ATOM     10  O   UNL     1      -4.281  12.432 -53.453  1.00  0.00    -0.463 OA
ATOM     11  C   UNL     1      -4.316  13.728 -53.827  1.00  0.00     0.145 A 
ENDROOT
BRANCH   2  12
ATOM     12  O   UNL     1      -2.073  16.554 -54.292  1.00  0.00    -0.508 OA
ATOM     13  H   UNL     1      -2.168  17.255 -53.633  1.00  0.00     0.293 HD
ENDBRANCH   2  12
BRANCH   4  14
ATOM     14  O   UNL     1      -6.777  16.244 -54.881  1.00  0.00    -0.507 OA
ATOM     15  H   UNL     1      -6.915  16.974 -54.263  1.00  0.00     0.293 HD
ENDBRANCH   4  14
BRANCH   8  16
ATOM     16  C   UNL     1      -7.655  11.080 -54.216  1.00  0.00    -0.011 A 
ATOM     17  C   UNL     1      -8.271  10.464 -53.128  1.00  0.00     0.013 A 
ATOM     18  C   UNL     1      -8.088  10.796 -55.509  1.00  0.00     0.013 A 
ATOM     19  C   UNL     1      -9.307   9.577 -53.334  1.00  0.00     0.047 A 
ATOM     20  C   UNL     1      -9.121   9.904 -55.709  1.00  0.00     0.047 A 
ATOM     21  C   UNL     1      -9.736   9.298 -54.623  1.00  0.00     0.115 A 
BRANCH  21  22
ATOM     22  O   UNL     1     -10.756   8.422 -54.822  1.00  0.00    -0.508 OA
ATOM     23  H   UNL     1     -11.221   8.713 -55.618  1.00  0.00     0.293 HD
ENDBRANCH  21  22
ENDBRANCH   8  16
TORSDOF 4

ENDMDL
MODEL 20
REMARK VINA RESULT:    -5.842      3.365      4.479
REMARK INTER + INTRA:          -6.785
REMARK INTER:                  -6.479
REMARK INTRA:                  -0.306
REMARK UNBOUND:                -0.090
REMARK SMILES O=c1c(-c2ccc(O)cc2)coc2cc(O)cc(O)c12
REMARK SMILES IDX 14 1 15 2 17 3 18 4 20 5 2 6 1 7 3 8 11 9 12 10 13 11 16 12
REMARK SMILES IDX 19 14 4 16 5 17 10 18 6 19 9 20 7 21 8 22
REMARK H PARENT 16 13 19 15 8 23
REMARK Flexibility Score: inf
ROOT
ATOM      1  C   UNL     1      -5.896  -1.530 -55.120  1.00  0.00     0.094 A 
ATOM      2  C   UNL     1      -6.461  -2.417 -56.022  1.00  0.00     0.123 A 
ATOM      3  C   UNL     1      -6.157  -3.773 -55.968  1.00  0.00     0.093 A 
ATOM      4  C   UNL     1      -5.282  -4.252 -55.012  1.00  0.00     0.134 A 
ATOM      5  C   UNL     1      -4.704  -3.360 -54.100  1.00  0.00     0.107 A 
ATOM      6  C   UNL     1      -3.753  -3.815 -53.075  1.00  0.00     0.204 A 
ATOM      7  O   UNL     1      -3.592  -4.999 -52.828  1.00  0.00    -0.288 OA
ATOM      8  C   UNL     1      -3.008  -2.763 -52.359  1.00  0.00     0.065 A 
ATOM      9  C   UNL     1      -3.412  -1.475 -52.503  1.00  0.00     0.208 A 
ATOM     10  O   UNL     1      -4.464  -1.142 -53.259  1.00  0.00    -0.463 OA
ATOM     11  C   UNL     1      -5.017  -1.990 -54.151  1.00  0.00     0.145 A 
ENDROOT
BRANCH   2  12
ATOM     12  O   UNL     1      -7.317  -1.957 -56.969  1.00  0.00    -0.508 OA
ATOM     13  H   UNL     1      -6.915  -1.164 -57.349  1.00  0.00     0.293 HD
ENDBRANCH   2  12
BRANCH   4  14
ATOM     14  O   UNL     1      -4.985  -5.575 -54.956  1.00  0.00    -0.507 OA
ATOM     15  H   UNL     1      -5.806  -6.037 -54.743  1.00  0.00     0.293 HD
ENDBRANCH   4  14
BRANCH   8  16
ATOM     16  C   UNL     1      -1.845  -3.105 -51.504  1.00  0.00    -0.011 A 
ATOM     17  C   UNL     1      -0.573  -3.213 -52.065  1.00  0.00     0.013 A 
ATOM     18  C   UNL     1      -2.020  -3.319 -50.139  1.00  0.00     0.013 A 
ATOM     19  C   UNL     1       0.506  -3.531 -51.268  1.00  0.00     0.047 A 
ATOM     20  C   UNL     1      -0.938  -3.641 -49.348  1.00  0.00     0.047 A 
ATOM     21  C   UNL     1       0.328  -3.743 -49.909  1.00  0.00     0.115 A 
BRANCH  21  22
ATOM     22  O   UNL     1       1.394  -4.057 -49.126  1.00  0.00    -0.508 OA
ATOM     23  H   UNL     1       1.205  -3.710 -48.244  1.00  0.00     0.293 HD
ENDBRANCH  21  22
ENDBRANCH   8  16
TORSDOF 4

ENDMDL
