ligand
  PyMOL2.3          3D                             0

 23 25  0  0  0  0  0  0  0  0999 V2000
   -0.0486  -30.0378  -36.3181 C   0  0  0  0  0  0  0  0  0  0  0  0
   -1.2523  -30.0632  -37.0551 C   0  0  0  0  0  0  0  0  0  0  0  0
   -2.2616  -30.3248  -39.1952 C   0  0  0  0  0  0  0  0  0  0  0  0
   -3.5202  -30.2004  -38.6992 C   0  0  0  0  0  0  0  0  0  0  0  0
   -3.7087  -29.9679  -37.2469 C   0  0  0  0  0  0  0  0  0  0  0  0
   -2.4696  -29.8794  -36.4376 C   0  0  0  0  0  0  0  0  0  0  0  0
   -2.5256  -29.6550  -35.0495 C   0  0  0  0  0  0  0  0  0  0  0  0
   -1.3537  -29.6530  -34.2878 C   0  0  0  0  0  0  0  0  0  0  0  0
   -0.1622  -29.8215  -34.9395 C   0  0  0  0  0  0  0  0  0  0  0  0
   -4.5823  -30.2841  -39.7673 C   0  0  0  0  0  0  0  0  0  0  0  0
   -4.4067  -31.1846  -40.8343 C   0  0  0  0  0  0  0  0  0  0  0  0
   -5.3874  -31.2619  -41.8550 C   0  0  0  0  0  0  0  0  0  0  0  0
   -6.5099  -30.4345  -41.7927 C   0  0  0  0  0  0  0  0  0  0  0  0
   -6.6890  -29.5667  -40.7365 C   0  0  0  0  0  0  0  0  0  0  0  0
   -5.7296  -29.4934  -39.7409 C   0  0  0  0  0  0  0  0  0  0  0  0
   -1.1482  -30.2717  -38.4060 O   0  0  0  0  0  0  0  0  0  0  0  0
   -4.8472  -29.8310  -36.8238 O   0  0  0  0  0  0  0  0  0  0  0  0
   -7.4676  -30.4796  -42.7909 O   0  0  0  0  0  0  0  0  0  0  0  0
   -3.7644  -29.5248  -34.5030 O   0  0  0  0  0  0  0  0  0  0  0  0
    0.9928  -29.8092  -34.1711 O   0  0  0  0  0  0  0  0  0  0  0  0
   -7.3436  -31.0782  -43.5182 H   0  0  0  0  0  0  0  0  0  0  0  0
   -4.5608  -29.5268  -35.0205 H   0  0  0  0  0  0  0  0  0  0  0  0
    0.9164  -29.6621  -33.2360 H   0  0  0  0  0  0  0  0  0  0  0  0
  1  2  1  0  0  0  0
  1  9  1  0  0  0  0
  2  6  1  0  0  0  0
  2 16  2  0  0  0  0
  3  4  1  0  0  0  0
  4  5  1  0  0  0  0
  4 10  1  0  0  0  0
  5  6  1  0  0  0  0
  5 17  2  0  0  0  0
  6  7  1  0  0  0  0
  7  8  1  0  0  0  0
  7 19  2  0  0  0  0
  8  9  1  0  0  0  0
  9 20  2  0  0  0  0
 10 11  1  0  0  0  0
 10 15  1  0  0  0  0
 11 12  1  0  0  0  0
 12 13  1  0  0  0  0
 13 14  1  0  0  0  0
 13 18  2  0  0  0  0
 14 15  1  0  0  0  0
  3 16  2  0  0  0  0
 18 21  1  0  0  0  0
 19 22  1  0  0  0  0
 20 23  1  0  0  0  0
M  END
$$$$
