REMARK  4 active torsions:
REMARK  status: ('A' for Active; 'I' for Inactive)
REMARK    1  A    between atoms: C_4  and  C_10 
REMARK    2  A    between atoms: C_7  and  O_19 
REMARK    3  A    between atoms: C_9  and  O_20 
REMARK    4  A    between atoms: C_13  and  O_18 
ROOT
HETATM    1  C   UNL     1      -0.049 -30.038 -36.318  1.00  0.00     0.049 A 
HETATM    2  C   UNL     1      -1.252 -30.063 -37.055  1.00  0.00     0.107 A 
HETATM    3  C   UNL     1      -2.262 -30.325 -39.195  1.00  0.00     0.126 A 
HETATM    4  C   UNL     1      -3.520 -30.200 -38.699  1.00  0.00     0.064 A 
HETATM    5  C   UNL     1      -3.709 -29.968 -37.247  1.00  0.00     0.201 A 
HETATM    6  C   UNL     1      -2.470 -29.879 -36.438  1.00  0.00     0.084 A 
HETATM    7  C   UNL     1      -2.526 -29.655 -35.050  1.00  0.00     0.096 A 
HETATM    8  C   UNL     1      -1.354 -29.653 -34.288  1.00  0.00     0.048 A 
HETATM    9  C   UNL     1      -0.162 -29.822 -34.940  1.00  0.00     0.093 A 
HETATM   10  O   UNL     1      -1.148 -30.272 -38.406  1.00  0.00    -0.305 OA
HETATM   11  O   UNL     1      -4.847 -29.831 -36.824  1.00  0.00    -0.286 OA
ENDROOT
BRANCH   4  12
HETATM   12  C   UNL     1      -4.582 -30.284 -39.767  1.00  0.00     0.005 A 
HETATM   13  C   UNL     1      -4.407 -31.185 -40.834  1.00  0.00     0.002 A 
HETATM   14  C   UNL     1      -5.387 -31.262 -41.855  1.00  0.00     0.024 A 
HETATM   15  C   UNL     1      -6.510 -30.434 -41.793  1.00  0.00     0.089 A 
HETATM   16  C   UNL     1      -6.689 -29.567 -40.736  1.00  0.00     0.024 A 
HETATM   17  C   UNL     1      -5.730 -29.493 -39.741  1.00  0.00     0.002 A 
BRANCH  15  18
HETATM   18  O   UNL     1      -7.468 -30.480 -42.791  1.00  0.00    -0.359 OA
HETATM   19  H   UNL     1      -7.344 -31.078 -43.518  1.00  0.00     0.217 HD
ENDBRANCH  15  18
ENDBRANCH   4  12
BRANCH   7  20
HETATM   20  O   UNL     1      -3.764 -29.525 -34.503  1.00  0.00    -0.359 OA
HETATM   21  H   UNL     1      -4.561 -29.527 -35.020  1.00  0.00     0.217 HD
ENDBRANCH   7  20
BRANCH   9  22
HETATM   22  O   UNL     1       0.993 -29.809 -34.171  1.00  0.00    -0.359 OA
HETATM   23  H   UNL     1       0.916 -29.662 -33.236  1.00  0.00     0.217 HD
ENDBRANCH   9  22
TORSDOF 4
