@<TRIPOS>MOLECULE
ligand
 23 25 0 0 0
SMALL
GASTEIGER

@<TRIPOS>ATOM
      1 C          -0.0486  -30.0378  -36.3181 C.3     1  UNL1        0.1200
      2 C          -1.2523  -30.0632  -37.0551 C.2     1  UNL1        0.1207
      3 C          -2.2616  -30.3248  -39.1952 C.2     1  UNL1        0.1588
      4 C          -3.5202  -30.2004  -38.6992 C.3     1  UNL1        0.1184
      5 C          -3.7087  -29.9679  -37.2469 C.2     1  UNL1        0.1708
      6 C          -2.4696  -29.8794  -36.4376 C.3     1  UNL1        0.1635
      7 C          -2.5256  -29.6550  -35.0495 C.2     1  UNL1        0.1095
      8 C          -1.3537  -29.6530  -34.2878 C.3     1  UNL1        0.1191
      9 C          -0.1622  -29.8215  -34.9395 C.2     1  UNL1        0.1032
     10 C          -4.5823  -30.2841  -39.7673 C.3     1  UNL1        0.0151
     11 C          -4.4067  -31.1846  -40.8343 C.3     1  UNL1        0.0084
     12 C          -5.3874  -31.2619  -41.8550 C.3     1  UNL1        0.0590
     13 C          -6.5099  -30.4345  -41.7927 C.2     1  UNL1        0.0887
     14 C          -6.6890  -29.5667  -40.7365 C.3     1  UNL1        0.0590
     15 C          -5.7296  -29.4934  -39.7409 C.3     1  UNL1        0.0084
     16 O          -1.1482  -30.2717  -38.4060 O.2     1  UNL1       -0.4618
     17 O          -4.8472  -29.8310  -36.8238 O.2     1  UNL1       -0.2947
     18 O          -7.4676  -30.4796  -42.7909 O.2     1  UNL1       -0.5140
     19 O          -3.7644  -29.5248  -34.5030 O.2     1  UNL1       -0.5127
     20 O           0.9928  -29.8092  -34.1711 O.2     1  UNL1       -0.5131
     21 H          -7.3436  -31.0782  -43.5182 H       1  UNL1        0.2912
     22 H          -4.5608  -29.5268  -35.0205 H       1  UNL1        0.2913
     23 H           0.9164  -29.6621  -33.2360 H       1  UNL1        0.2912
@<TRIPOS>BOND
     1     1     2    1
     2     1     9    1
     3     2     6    1
     4     2    16    2
     5     3     4    1
     6     4     5    1
     7     4    10    1
     8     5     6    1
     9     5    17    2
    10     6     7    1
    11     7     8    1
    12     7    19    2
    13     8     9    1
    14     9    20    2
    15    10    11    1
    16    10    15    1
    17    11    12    1
    18    12    13    1
    19    13    14    1
    20    13    18    2
    21    14    15    1
    22     3    16    2
    23    18    21    1
    24    19    22    1
    25    20    23    1
