REMARK  Name = GEN
REMARK  4 active torsions:
REMARK  status: ('A' for Active; 'I' for Inactive)
REMARK    1  A    between atoms: C_2  and  O_3
REMARK    2  A    between atoms: C_5  and  O_6
REMARK    3  A    between atoms: C_10  and  C_14
REMARK    4  A    between atoms: C_17  and  O_18
REMARK                            x       y       z     vdW  Elec       q    Type
REMARK                         _______ _______ _______ _____ _____    ______ ____
ROOT
ATOM      1  C   UNL     1       2.856  -2.947 -50.846  0.00  0.00    +0.023 A 
ATOM      2  H   UNL     1       3.870  -3.001 -51.216  0.00  0.00    +0.069 HD
ATOM      3  C   UNL     1       1.791  -3.062 -51.726  0.00  0.00    +0.145 A 
ATOM      4  O   UNL     1       2.000  -3.250 -53.045  0.00  0.00    -0.462 OA
ATOM      5  C   UNL     1       1.038  -3.083 -53.959  0.00  0.00    +0.104 A 
ATOM      6  H   UNL     1       1.314  -3.009 -55.000  0.00  0.00    +0.104 HD
ATOM      7  C   UNL     1      -0.274  -3.003 -53.617  0.00  0.00    +0.064 A 
ATOM      8  C   UNL     1      -0.633  -3.088 -52.190  0.00  0.00    +0.204 A 
ATOM      9  O   UNL     1      -1.786  -3.242 -51.824  0.00  0.00    -0.286 OA
ATOM     10  C   UNL     1       0.478  -2.984 -51.230  0.00  0.00    +0.106 A 
ATOM     11  C   UNL     1       0.248  -2.802 -49.861  0.00  0.00    +0.135 A 
ATOM     12  C   UNL     1       1.324  -2.692 -49.001  0.00  0.00    +0.022 A 
ATOM     13  H   UNL     1       1.156  -2.551 -47.942  0.00  0.00    +0.069 HD
ATOM     14  C   UNL     1       2.623  -2.763 -49.493  0.00  0.00    +0.124 A 
ENDROOT
BRANCH   7  15
ATOM     15  C   UNL     1      -1.321  -2.829 -54.654  0.00  0.00    -0.011 A 
ATOM     16  C   UNL     1      -2.620  -3.272 -54.415  0.00  0.00    -0.050 A 
ATOM     17  H   UNL     1      -2.866  -3.745 -53.475  0.00  0.00    +0.062 HD
ATOM     18  C   UNL     1      -3.592  -3.104 -55.378  0.00  0.00    -0.020 A 
ATOM     19  H   UNL     1      -4.600  -3.449 -55.193  0.00  0.00    +0.065 HD
ATOM     20  C   UNL     1      -3.276  -2.503 -56.588  0.00  0.00    +0.117 A 
ATOM     21  C   UNL     1      -1.985  -2.059 -56.829  0.00  0.00    -0.020 A 
ATOM     22  H   UNL     1      -1.743  -1.587 -57.770  0.00  0.00    +0.065 HD
ATOM     23  C   UNL     1      -1.009  -2.220 -55.868  0.00  0.00    -0.050 A 
ATOM     24  H   UNL     1      -0.002  -1.875 -56.055  0.00  0.00    +0.062 HD
BRANCH  20  25
ATOM     25  O   UNL     1      -4.236  -2.343 -57.537  0.00  0.00    -0.507 OA
ATOM     26  H   UNL     1      -4.289  -3.176 -58.024  0.00  0.00    +0.292 HD
ENDBRANCH  20  25
ENDBRANCH   7  15
BRANCH  11  27
ATOM     27  O   UNL     1      -1.021  -2.735 -49.383  0.00  0.00    -0.506 OA
ATOM     28  H   UNL     1      -1.607  -2.712 -50.150  0.00  0.00    +0.292 HD
ENDBRANCH  11  27
BRANCH  14  29
ATOM     29  O   UNL     1       3.671  -2.648 -48.640  0.00  0.00    -0.507 OA
ATOM     30  H   UNL     1       3.624  -3.402 -48.036  0.00  0.00    +0.292 HD
ENDBRANCH  14  29
TORSDOF 4
