REMARK  Name = GEN
REMARK  4 active torsions:
REMARK  status: ('A' for Active; 'I' for Inactive)
REMARK    1  A    between atoms: C_2  and  O_3
REMARK    2  A    between atoms: C_5  and  O_6
REMARK    3  A    between atoms: C_10  and  C_14
REMARK    4  A    between atoms: C_17  and  O_18
REMARK                            x       y       z     vdW  Elec       q    Type
REMARK                         _______ _______ _______ _____ _____    ______ ____
ROOT
ATOM      1  C   UNL     1      -2.028  -5.152 -51.265  0.00  0.00    +0.023 A 
ATOM      2  H   UNL     1      -1.232  -5.874 -51.151  0.00  0.00    +0.069 HD
ATOM      3  C   UNL     1      -2.213  -4.510 -52.479  0.00  0.00    +0.145 A 
ATOM      4  O   UNL     1      -1.414  -4.778 -53.533  0.00  0.00    -0.462 OA
ATOM      5  C   UNL     1      -1.364  -3.997 -54.618  0.00  0.00    +0.104 A 
ATOM      6  H   UNL     1      -0.546  -4.121 -55.313  0.00  0.00    +0.104 HD
ATOM      7  C   UNL     1      -2.308  -3.054 -54.871  0.00  0.00    +0.064 A 
ATOM      8  C   UNL     1      -3.408  -2.888 -53.904  0.00  0.00    +0.204 A 
ATOM      9  O   UNL     1      -4.398  -2.225 -54.164  0.00  0.00    -0.286 OA
ATOM     10  C   UNL     1      -3.249  -3.569 -52.609  0.00  0.00    +0.106 A 
ATOM     11  C   UNL     1      -4.093  -3.291 -51.527  0.00  0.00    +0.135 A 
ATOM     12  C   UNL     1      -3.893  -3.944 -50.326  0.00  0.00    +0.022 A 
ATOM     13  H   UNL     1      -4.538  -3.736 -49.484  0.00  0.00    +0.069 HD
ATOM     14  C   UNL     1      -2.863  -4.870 -50.196  0.00  0.00    +0.124 A 
ENDROOT
BRANCH   7  15
ATOM     15  C   UNL     1      -2.233  -2.210 -56.088  0.00  0.00    -0.011 A 
ATOM     16  C   UNL     1      -0.993  -1.861 -56.620  0.00  0.00    -0.050 A 
ATOM     17  H   UNL     1      -0.085  -2.204 -56.145  0.00  0.00    +0.062 HD
ATOM     18  C   UNL     1      -0.926  -1.081 -57.755  0.00  0.00    -0.020 A 
ATOM     19  H   UNL     1       0.035  -0.809 -58.167  0.00  0.00    +0.065 HD
ATOM     20  C   UNL     1      -2.092  -0.634 -58.362  0.00  0.00    +0.117 A 
ATOM     21  C   UNL     1      -3.328  -0.981 -57.836  0.00  0.00    -0.020 A 
ATOM     22  H   UNL     1      -4.233  -0.636 -58.313  0.00  0.00    +0.065 HD
ATOM     23  C   UNL     1      -3.401  -1.766 -56.704  0.00  0.00    -0.050 A 
ATOM     24  H   UNL     1      -4.363  -2.035 -56.293  0.00  0.00    +0.062 HD
BRANCH  20  25
ATOM     25  O   UNL     1      -2.023   0.138 -59.478  0.00  0.00    -0.507 OA
ATOM     26  H   UNL     1      -2.514  -0.326 -60.169  0.00  0.00    +0.292 HD
ENDBRANCH  20  25
ENDBRANCH   7  15
BRANCH  11  27
ATOM     27  O   UNL     1      -5.098  -2.389 -51.657  0.00  0.00    -0.506 OA
ATOM     28  H   UNL     1      -5.183  -2.199 -52.600  0.00  0.00    +0.292 HD
ENDBRANCH  11  27
BRANCH  14  29
ATOM     29  O   UNL     1      -2.673  -5.501 -49.010  0.00  0.00    -0.507 OA
ATOM     30  H   UNL     1      -1.792  -5.250 -48.698  0.00  0.00    +0.292 HD
ENDBRANCH  14  29
TORSDOF 4
