REMARK  Name = GEN
REMARK  4 active torsions:
REMARK  status: ('A' for Active; 'I' for Inactive)
REMARK    1  A    between atoms: C_2  and  O_3
REMARK    2  A    between atoms: C_5  and  O_6
REMARK    3  A    between atoms: C_10  and  C_14
REMARK    4  A    between atoms: C_17  and  O_18
REMARK                            x       y       z     vdW  Elec       q    Type
REMARK                         _______ _______ _______ _____ _____    ______ ____
ROOT
ATOM      1  C   UNL     1      -4.671 -12.180 -60.304  0.00  0.00    +0.023 A 
ATOM      2  H   UNL     1      -5.364 -11.350 -60.315  0.00  0.00    +0.069 HD
ATOM      3  C   UNL     1      -3.344 -11.979 -60.651  0.00  0.00    +0.145 A 
ATOM      4  O   UNL     1      -2.897 -10.754 -60.997  0.00  0.00    -0.462 OA
ATOM      5  C   UNL     1      -1.722 -10.560 -61.604  0.00  0.00    +0.104 A 
ATOM      6  H   UNL     1      -1.525  -9.605 -62.069  0.00  0.00    +0.104 HD
ATOM      7  C   UNL     1      -0.769 -11.527 -61.656  0.00  0.00    +0.064 A 
ATOM      8  C   UNL     1      -1.060 -12.830 -61.031  0.00  0.00    +0.204 A 
ATOM      9  O   UNL     1      -0.188 -13.663 -60.846  0.00  0.00    -0.286 OA
ATOM     10  C   UNL     1      -2.457 -13.069 -60.638  0.00  0.00    +0.106 A 
ATOM     11  C   UNL     1      -2.906 -14.343 -60.269  0.00  0.00    +0.135 A 
ATOM     12  C   UNL     1      -4.233 -14.522 -59.925  0.00  0.00    +0.022 A 
ATOM     13  H   UNL     1      -4.589 -15.501 -59.639  0.00  0.00    +0.069 HD
ATOM     14  C   UNL     1      -5.111 -13.444 -59.944  0.00  0.00    +0.124 A 
ENDROOT
BRANCH   7  15
ATOM     15  C   UNL     1       0.530 -11.279 -62.328  0.00  0.00    -0.011 A 
ATOM     16  C   UNL     1       1.364 -10.257 -61.880  0.00  0.00    -0.050 A 
ATOM     17  H   UNL     1       1.064  -9.642 -61.044  0.00  0.00    +0.062 HD
ATOM     18  C   UNL     1       2.574 -10.033 -62.503  0.00  0.00    -0.020 A 
ATOM     19  H   UNL     1       3.220  -9.240 -62.156  0.00  0.00    +0.065 HD
ATOM     20  C   UNL     1       2.957 -10.819 -63.581  0.00  0.00    +0.117 A 
ATOM     21  C   UNL     1       2.130 -11.838 -64.029  0.00  0.00    -0.020 A 
ATOM     22  H   UNL     1       2.433 -12.451 -64.865  0.00  0.00    +0.065 HD
ATOM     23  C   UNL     1       0.921 -12.070 -63.407  0.00  0.00    -0.050 A 
ATOM     24  H   UNL     1       0.276 -12.864 -63.756  0.00  0.00    +0.062 HD
BRANCH  20  25
ATOM     25  O   UNL     1       4.148 -10.593 -64.196  0.00  0.00    -0.507 OA
ATOM     26  H   UNL     1       3.977  -9.972 -64.916  0.00  0.00    +0.292 HD
ENDBRANCH  20  25
ENDBRANCH   7  15
BRANCH  11  27
ATOM     27  O   UNL     1      -2.046 -15.393 -60.249  0.00  0.00    -0.506 OA
ATOM     28  H   UNL     1      -1.295 -15.128 -59.703  0.00  0.00    +0.292 HD
ENDBRANCH  11  27
BRANCH  14  29
ATOM     29  O   UNL     1      -6.413 -13.632 -59.609  0.00  0.00    -0.507 OA
ATOM     30  H   UNL     1      -6.450 -13.669 -58.643  0.00  0.00    +0.292 HD
ENDBRANCH  14  29
TORSDOF 4
