REMARK  Name = GEN
REMARK  4 active torsions:
REMARK  status: ('A' for Active; 'I' for Inactive)
REMARK    1  A    between atoms: C_2  and  O_3
REMARK    2  A    between atoms: C_5  and  O_6
REMARK    3  A    between atoms: C_10  and  C_14
REMARK    4  A    between atoms: C_17  and  O_18
REMARK                            x       y       z     vdW  Elec       q    Type
REMARK                         _______ _______ _______ _____ _____    ______ ____
ROOT
ATOM      1  C   UNL     1       0.609  -3.370 -50.644  0.00  0.00    +0.023 A 
ATOM      2  H   UNL     1       1.595  -2.951 -50.496  0.00  0.00    +0.069 HD
ATOM      3  C   UNL     1       0.029  -3.346 -51.903  0.00  0.00    +0.145 A 
ATOM      4  O   UNL     1       0.681  -2.811 -52.956  0.00  0.00    -0.462 OA
ATOM      5  C   UNL     1       0.068  -2.508 -54.105  0.00  0.00    +0.104 A 
ATOM      6  H   UNL     1       0.575  -1.870 -54.814  0.00  0.00    +0.104 HD
ATOM      7  C   UNL     1      -1.171  -2.975 -54.407  0.00  0.00    +0.064 A 
ATOM      8  C   UNL     1      -1.856  -3.831 -53.420  0.00  0.00    +0.204 A 
ATOM      9  O   UNL     1      -2.862  -4.459 -53.703  0.00  0.00    -0.286 OA
ATOM     10  C   UNL     1      -1.256  -3.889 -52.078  0.00  0.00    +0.106 A 
ATOM     11  C   UNL     1      -1.938  -4.458 -50.996  0.00  0.00    +0.135 A 
ATOM     12  C   UNL     1      -1.340  -4.474 -49.750  0.00  0.00    +0.022 A 
ATOM     13  H   UNL     1      -1.859  -4.910 -48.908  0.00  0.00    +0.069 HD
ATOM     14  C   UNL     1      -0.072  -3.930 -49.576  0.00  0.00    +0.124 A 
ENDROOT
BRANCH   7  15
ATOM     15  C   UNL     1      -1.821  -2.631 -55.695  0.00  0.00    -0.011 A 
ATOM     16  C   UNL     1      -1.062  -2.122 -56.746  0.00  0.00    -0.050 A 
ATOM     17  H   UNL     1       0.002  -1.976 -56.624  0.00  0.00    +0.062 HD
ATOM     18  C   UNL     1      -1.669  -1.807 -57.944  0.00  0.00    -0.020 A 
ATOM     19  H   UNL     1      -1.080  -1.412 -58.759  0.00  0.00    +0.065 HD
ATOM     20  C   UNL     1      -3.036  -1.988 -58.100  0.00  0.00    +0.117 A 
ATOM     21  C   UNL     1      -3.794  -2.496 -57.056  0.00  0.00    -0.020 A 
ATOM     22  H   UNL     1      -4.858  -2.641 -57.182  0.00  0.00    +0.065 HD
ATOM     23  C   UNL     1      -3.193  -2.817 -55.857  0.00  0.00    -0.050 A 
ATOM     24  H   UNL     1      -3.784  -3.212 -55.043  0.00  0.00    +0.062 HD
BRANCH  20  25
ATOM     25  O   UNL     1      -3.632  -1.674 -59.280  0.00  0.00    -0.507 OA
ATOM     26  H   UNL     1      -3.997  -2.495 -59.636  0.00  0.00    +0.292 HD
ENDBRANCH  20  25
ENDBRANCH   7  15
BRANCH  11  27
ATOM     27  O   UNL     1      -3.174  -4.990 -51.169  0.00  0.00    -0.506 OA
ATOM     28  H   UNL     1      -3.348  -4.989 -52.119  0.00  0.00    +0.292 HD
ENDBRANCH  11  27
BRANCH  14  29
ATOM     29  O   UNL     1       0.503  -3.947 -48.347  0.00  0.00    -0.507 OA
ATOM     30  H   UNL     1       1.366  -4.371 -48.447  0.00  0.00    +0.292 HD
ENDBRANCH  14  29
TORSDOF 4
