REMARK  Name = GEN
REMARK  4 active torsions:
REMARK  status: ('A' for Active; 'I' for Inactive)
REMARK    1  A    between atoms: C_2  and  O_3
REMARK    2  A    between atoms: C_5  and  O_6
REMARK    3  A    between atoms: C_10  and  C_14
REMARK    4  A    between atoms: C_17  and  O_18
REMARK                            x       y       z     vdW  Elec       q    Type
REMARK                         _______ _______ _______ _____ _____    ______ ____
ROOT
ATOM      1  C   UNL     1       2.208  -2.682 -50.317  0.00  0.00    +0.023 A 
ATOM      2  H   UNL     1       3.257  -2.496 -50.495  0.00  0.00    +0.069 HD
ATOM      3  C   UNL     1       1.333  -2.798 -51.386  0.00  0.00    +0.145 A 
ATOM      4  O   UNL     1       1.775  -2.688 -52.656  0.00  0.00    -0.462 OA
ATOM      5  C   UNL     1       0.950  -2.507 -53.694  0.00  0.00    +0.104 A 
ATOM      6  H   UNL     1       1.363  -2.187 -54.639  0.00  0.00    +0.104 HD
ATOM      7  C   UNL     1      -0.389  -2.711 -53.594  0.00  0.00    +0.064 A 
ATOM      8  C   UNL     1      -0.938  -3.131 -52.291  0.00  0.00    +0.204 A 
ATOM      9  O   UNL     1      -2.081  -3.540 -52.177  0.00  0.00    -0.286 OA
ATOM     10  C   UNL     1      -0.030  -3.035 -51.138  0.00  0.00    +0.106 A 
ATOM     11  C   UNL     1      -0.498  -3.163 -49.824  0.00  0.00    +0.135 A 
ATOM     12  C   UNL     1       0.391  -3.048 -48.773  0.00  0.00    +0.022 A 
ATOM     13  H   UNL     1       0.038  -3.145 -47.756  0.00  0.00    +0.069 HD
ATOM     14  C   UNL     1       1.738  -2.806 -49.019  0.00  0.00    +0.124 A 
ENDROOT
BRANCH   7  15
ATOM     15  C   UNL     1      -1.278  -2.513 -54.764  0.00  0.00    -0.011 A 
ATOM     16  C   UNL     1      -0.995  -1.516 -55.694  0.00  0.00    -0.050 A 
ATOM     17  H   UNL     1      -0.129  -0.884 -55.563  0.00  0.00    +0.062 HD
ATOM     18  C   UNL     1      -1.821  -1.337 -56.785  0.00  0.00    -0.020 A 
ATOM     19  H   UNL     1      -1.602  -0.563 -57.506  0.00  0.00    +0.065 HD
ATOM     20  C   UNL     1      -2.937  -2.144 -56.951  0.00  0.00    +0.117 A 
ATOM     21  C   UNL     1      -3.221  -3.140 -56.028  0.00  0.00    -0.020 A 
ATOM     22  H   UNL     1      -4.088  -3.769 -56.162  0.00  0.00    +0.065 HD
ATOM     23  C   UNL     1      -2.397  -3.326 -54.938  0.00  0.00    -0.050 A 
ATOM     24  H   UNL     1      -2.618  -4.100 -54.218  0.00  0.00    +0.062 HD
BRANCH  20  25
ATOM     25  O   UNL     1      -3.752  -1.964 -58.024  0.00  0.00    -0.507 OA
ATOM     26  H   UNL     1      -4.120  -2.830 -58.244  0.00  0.00    +0.292 HD
ENDBRANCH  20  25
ENDBRANCH   7  15
BRANCH  11  27
ATOM     27  O   UNL     1      -1.813  -3.401 -49.587  0.00  0.00    -0.506 OA
ATOM     28  H   UNL     1      -2.312  -2.866 -50.218  0.00  0.00    +0.292 HD
ENDBRANCH  11  27
BRANCH  14  29
ATOM     29  O   UNL     1       2.601  -2.690 -47.978  0.00  0.00    -0.507 OA
ATOM     30  H   UNL     1       3.156  -3.481 -47.985  0.00  0.00    +0.292 HD
ENDBRANCH  14  29
TORSDOF 4
