REMARK  Name = GEN
REMARK  4 active torsions:
REMARK  status: ('A' for Active; 'I' for Inactive)
REMARK    1  A    between atoms: C_2  and  O_3
REMARK    2  A    between atoms: C_5  and  O_6
REMARK    3  A    between atoms: C_10  and  C_14
REMARK    4  A    between atoms: C_17  and  O_18
REMARK                            x       y       z     vdW  Elec       q    Type
REMARK                         _______ _______ _______ _____ _____    ______ ____
ROOT
ATOM      1  C   UNL     1      -3.187   2.398 -44.693  0.00  0.00    +0.023 A 
ATOM      2  H   UNL     1      -2.260   2.746 -45.125  0.00  0.00    +0.069 HD
ATOM      3  C   UNL     1      -4.397   2.762 -45.264  0.00  0.00    +0.145 A 
ATOM      4  O   UNL     1      -4.436   3.544 -46.362  0.00  0.00    -0.462 OA
ATOM      5  C   UNL     1      -5.554   4.150 -46.777  0.00  0.00    +0.104 A 
ATOM      6  H   UNL     1      -5.479   4.944 -47.505  0.00  0.00    +0.104 HD
ATOM      7  C   UNL     1      -6.780   3.800 -46.308  0.00  0.00    +0.064 A 
ATOM      8  C   UNL     1      -6.864   2.726 -45.301  0.00  0.00    +0.204 A 
ATOM      9  O   UNL     1      -7.927   2.211 -44.997  0.00  0.00    -0.286 OA
ATOM     10  C   UNL     1      -5.595   2.306 -44.687  0.00  0.00    +0.106 A 
ATOM     11  C   UNL     1      -5.567   1.483 -43.554  0.00  0.00    +0.135 A 
ATOM     12  C   UNL     1      -4.350   1.130 -43.002  0.00  0.00    +0.022 A 
ATOM     13  H   UNL     1      -4.318   0.496 -42.128  0.00  0.00    +0.069 HD
ATOM     14  C   UNL     1      -3.165   1.587 -43.570  0.00  0.00    +0.124 A 
ENDROOT
BRANCH   7  15
ATOM     15  C   UNL     1      -8.004   4.482 -46.794  0.00  0.00    -0.011 A 
ATOM     16  C   UNL     1      -9.145   4.521 -45.996  0.00  0.00    -0.050 A 
ATOM     17  H   UNL     1      -9.140   4.053 -45.022  0.00  0.00    +0.062 HD
ATOM     18  C   UNL     1     -10.280   5.161 -46.448  0.00  0.00    -0.020 A 
ATOM     19  H   UNL     1     -11.165   5.191 -45.829  0.00  0.00    +0.065 HD
ATOM     20  C   UNL     1     -10.290   5.757 -47.701  0.00  0.00    +0.117 A 
ATOM     21  C   UNL     1      -9.155   5.722 -48.498  0.00  0.00    -0.020 A 
ATOM     22  H   UNL     1      -9.164   6.191 -49.471  0.00  0.00    +0.065 HD
ATOM     23  C   UNL     1      -8.015   5.088 -48.049  0.00  0.00    -0.050 A 
ATOM     24  H   UNL     1      -7.132   5.059 -48.670  0.00  0.00    +0.062 HD
BRANCH  20  25
ATOM     25  O   UNL     1     -11.411   6.384 -48.146  0.00  0.00    -0.507 OA
ATOM     26  H   UNL     1     -12.163   5.924 -47.750  0.00  0.00    +0.292 HD
ENDBRANCH  20  25
ENDBRANCH   7  15
BRANCH  11  27
ATOM     27  O   UNL     1      -6.724   1.037 -43.003  0.00  0.00    -0.506 OA
ATOM     28  H   UNL     1      -7.444   1.384 -43.546  0.00  0.00    +0.292 HD
ENDBRANCH  11  27
BRANCH  14  29
ATOM     29  O   UNL     1      -1.977   1.238 -43.016  0.00  0.00    -0.507 OA
ATOM     30  H   UNL     1      -1.523   0.677 -43.660  0.00  0.00    +0.292 HD
ENDBRANCH  14  29
TORSDOF 4
