REMARK  Name = GEN
REMARK  4 active torsions:
REMARK  status: ('A' for Active; 'I' for Inactive)
REMARK    1  A    between atoms: C_2  and  O_3
REMARK    2  A    between atoms: C_5  and  O_6
REMARK    3  A    between atoms: C_10  and  C_14
REMARK    4  A    between atoms: C_17  and  O_18
REMARK                            x       y       z     vdW  Elec       q    Type
REMARK                         _______ _______ _______ _____ _____    ______ ____
ROOT
ATOM      1  C   UNL     1      -6.227 -10.692 -59.452  0.00  0.00    +0.023 A 
ATOM      2  H   UNL     1      -6.166  -9.624 -59.605  0.00  0.00    +0.069 HD
ATOM      3  C   UNL     1      -5.130 -11.494 -59.727  0.00  0.00    +0.145 A 
ATOM      4  O   UNL     1      -3.977 -10.959 -60.178  0.00  0.00    -0.462 OA
ATOM      5  C   UNL     1      -3.003 -11.698 -60.722  0.00  0.00    +0.104 A 
ATOM      6  H   UNL     1      -2.221 -11.203 -61.278  0.00  0.00    +0.104 HD
ATOM      7  C   UNL     1      -2.969 -13.050 -60.597  0.00  0.00    +0.064 A 
ATOM      8  C   UNL     1      -4.054 -13.712 -59.849  0.00  0.00    +0.204 A 
ATOM      9  O   UNL     1      -3.981 -14.881 -59.510  0.00  0.00    -0.286 OA
ATOM     10  C   UNL     1      -5.226 -12.883 -59.528  0.00  0.00    +0.106 A 
ATOM     11  C   UNL     1      -6.414 -13.449 -59.048  0.00  0.00    +0.135 A 
ATOM     12  C   UNL     1      -7.494 -12.631 -58.778  0.00  0.00    +0.022 A 
ATOM     13  H   UNL     1      -8.415 -13.058 -58.408  0.00  0.00    +0.069 HD
ATOM     14  C   UNL     1      -7.401 -11.258 -58.981  0.00  0.00    +0.124 A 
ENDROOT
BRANCH   7  15
ATOM     15  C   UNL     1      -1.870 -13.842 -61.201  0.00  0.00    -0.011 A 
ATOM     16  C   UNL     1      -2.060 -15.192 -61.488  0.00  0.00    -0.050 A 
ATOM     17  H   UNL     1      -3.007 -15.664 -61.269  0.00  0.00    +0.062 HD
ATOM     18  C   UNL     1      -1.038 -15.925 -62.054  0.00  0.00    -0.020 A 
ATOM     19  H   UNL     1      -1.185 -16.973 -62.277  0.00  0.00    +0.065 HD
ATOM     20  C   UNL     1       0.181 -15.322 -62.330  0.00  0.00    +0.117 A 
ATOM     21  C   UNL     1       0.373 -13.978 -62.047  0.00  0.00    -0.020 A 
ATOM     22  H   UNL     1       1.321 -13.510 -62.266  0.00  0.00    +0.065 HD
ATOM     23  C   UNL     1      -0.647 -13.238 -61.484  0.00  0.00    -0.050 A 
ATOM     24  H   UNL     1      -0.497 -12.192 -61.263  0.00  0.00    +0.062 HD
BRANCH  20  25
ATOM     25  O   UNL     1       1.188 -16.048 -62.884  0.00  0.00    -0.507 OA
ATOM     26  H   UNL     1       1.534 -15.528 -63.621  0.00  0.00    +0.292 HD
ENDBRANCH  20  25
ENDBRANCH   7  15
BRANCH  11  27
ATOM     27  O   UNL     1      -6.502 -14.788 -58.849  0.00  0.00    -0.506 OA
ATOM     28  H   UNL     1      -5.648 -15.076 -58.501  0.00  0.00    +0.292 HD
ENDBRANCH  11  27
BRANCH  14  29
ATOM     29  O   UNL     1      -8.470 -10.465 -58.717  0.00  0.00    -0.507 OA
ATOM     30  H   UNL     1      -8.622  -9.930 -59.508  0.00  0.00    +0.292 HD
ENDBRANCH  14  29
TORSDOF 4
