REMARK  Name = GEN
REMARK  4 active torsions:
REMARK  status: ('A' for Active; 'I' for Inactive)
REMARK    1  A    between atoms: C_2  and  O_3
REMARK    2  A    between atoms: C_5  and  O_6
REMARK    3  A    between atoms: C_10  and  C_14
REMARK    4  A    between atoms: C_17  and  O_18
REMARK                            x       y       z     vdW  Elec       q    Type
REMARK                         _______ _______ _______ _____ _____    ______ ____
ROOT
ATOM      1  C   UNL     1      10.334 -13.534 -30.369  0.00  0.00    +0.023 A 
ATOM      2  H   UNL     1      10.819 -13.025 -31.189  0.00  0.00    +0.069 HD
ATOM      3  C   UNL     1      10.147 -12.880 -29.161  0.00  0.00    +0.145 A 
ATOM      4  O   UNL     1      10.556 -11.605 -28.993  0.00  0.00    -0.462 OA
ATOM      5  C   UNL     1      10.659 -11.033 -27.788  0.00  0.00    +0.104 A 
ATOM      6  H   UNL     1      11.213 -10.111 -27.694  0.00  0.00    +0.104 HD
ATOM      7  C   UNL     1      10.091 -11.578 -26.681  0.00  0.00    +0.064 A 
ATOM      8  C   UNL     1       9.352 -12.846 -26.824  0.00  0.00    +0.204 A 
ATOM      9  O   UNL     1       8.640 -13.279 -25.935  0.00  0.00    -0.286 OA
ATOM     10  C   UNL     1       9.519 -13.558 -28.101  0.00  0.00    +0.106 A 
ATOM     11  C   UNL     1       9.078 -14.877 -28.267  0.00  0.00    +0.135 A 
ATOM     12  C   UNL     1       9.272 -15.510 -29.480  0.00  0.00    +0.022 A 
ATOM     13  H   UNL     1       8.936 -16.527 -29.617  0.00  0.00    +0.069 HD
ATOM     14  C   UNL     1       9.899 -14.840 -30.525  0.00  0.00    +0.124 A 
ENDROOT
BRANCH   7  15
ATOM     15  C   UNL     1      10.213 -10.915 -25.360  0.00  0.00    -0.011 A 
ATOM     16  C   UNL     1       9.765  -9.607 -25.191  0.00  0.00    -0.050 A 
ATOM     17  H   UNL     1       9.329  -9.073 -26.023  0.00  0.00    +0.062 HD
ATOM     18  C   UNL     1       9.874  -8.995 -23.960  0.00  0.00    -0.020 A 
ATOM     19  H   UNL     1       9.527  -7.981 -23.829  0.00  0.00    +0.065 HD
ATOM     20  C   UNL     1      10.439  -9.678 -22.892  0.00  0.00    +0.117 A 
ATOM     21  C   UNL     1      10.884 -10.981 -23.056  0.00  0.00    -0.020 A 
ATOM     22  H   UNL     1      11.319 -11.512 -22.221  0.00  0.00    +0.065 HD
ATOM     23  C   UNL     1      10.773 -11.600 -24.283  0.00  0.00    -0.050 A 
ATOM     24  H   UNL     1      11.121 -12.615 -24.411  0.00  0.00    +0.062 HD
BRANCH  20  25
ATOM     25  O   UNL     1      10.549  -9.072 -21.680  0.00  0.00    -0.507 OA
ATOM     26  H   UNL     1       9.776  -8.500 -21.583  0.00  0.00    +0.292 HD
ENDBRANCH  20  25
ENDBRANCH   7  15
BRANCH  11  27
ATOM     27  O   UNL     1       8.464 -15.527 -27.246  0.00  0.00    -0.506 OA
ATOM     28  H   UNL     1       7.769 -14.941 -26.920  0.00  0.00    +0.292 HD
ENDBRANCH  11  27
BRANCH  14  29
ATOM     29  O   UNL     1      10.089 -15.474 -31.710  0.00  0.00    -0.507 OA
ATOM     30  H   UNL     1       9.997 -16.421 -31.539  0.00  0.00    +0.292 HD
ENDBRANCH  14  29
TORSDOF 4
