REMARK  Name = GEN
REMARK  4 active torsions:
REMARK  status: ('A' for Active; 'I' for Inactive)
REMARK    1  A    between atoms: C_2  and  O_3
REMARK    2  A    between atoms: C_5  and  O_6
REMARK    3  A    between atoms: C_10  and  C_14
REMARK    4  A    between atoms: C_17  and  O_18
REMARK                            x       y       z     vdW  Elec       q    Type
REMARK                         _______ _______ _______ _____ _____    ______ ____
ROOT
ATOM      1  C   UNL     1       2.114  -2.579 -50.681  0.00  0.00    +0.023 A 
ATOM      2  H   UNL     1       3.156  -2.408 -50.907  0.00  0.00    +0.069 HD
ATOM      3  C   UNL     1       1.191  -2.685 -51.710  0.00  0.00    +0.145 A 
ATOM      4  O   UNL     1       1.576  -2.586 -52.999  0.00  0.00    -0.462 OA
ATOM      5  C   UNL     1       0.708  -2.397 -53.999  0.00  0.00    +0.104 A 
ATOM      6  H   UNL     1       1.082  -2.086 -54.963  0.00  0.00    +0.104 HD
ATOM      7  C   UNL     1      -0.628  -2.582 -53.839  0.00  0.00    +0.064 A 
ATOM      8  C   UNL     1      -1.123  -2.990 -52.511  0.00  0.00    +0.204 A 
ATOM      9  O   UNL     1      -2.266  -3.383 -52.344  0.00  0.00    -0.286 OA
ATOM     10  C   UNL     1      -0.164  -2.903 -51.400  0.00  0.00    +0.106 A 
ATOM     11  C   UNL     1      -0.574  -3.020 -50.066  0.00  0.00    +0.135 A 
ATOM     12  C   UNL     1       0.363  -2.914 -49.056  0.00  0.00    +0.022 A 
ATOM     13  H   UNL     1       0.055  -3.002 -48.024  0.00  0.00    +0.069 HD
ATOM     14  C   UNL     1       1.701  -2.692 -49.363  0.00  0.00    +0.124 A 
ENDROOT
BRANCH   7  15
ATOM     15  C   UNL     1      -1.566  -2.376 -54.969  0.00  0.00    -0.011 A 
ATOM     16  C   UNL     1      -2.939  -2.353 -54.740  0.00  0.00    -0.050 A 
ATOM     17  H   UNL     1      -3.324  -2.487 -53.739  0.00  0.00    +0.062 HD
ATOM     18  C   UNL     1      -3.809  -2.156 -55.792  0.00  0.00    -0.020 A 
ATOM     19  H   UNL     1      -4.875  -2.138 -55.615  0.00  0.00    +0.065 HD
ATOM     20  C   UNL     1      -3.317  -1.989 -57.079  0.00  0.00    +0.117 A 
ATOM     21  C   UNL     1      -1.950  -2.010 -57.310  0.00  0.00    -0.020 A 
ATOM     22  H   UNL     1      -1.570  -1.875 -58.313  0.00  0.00    +0.065 HD
ATOM     23  C   UNL     1      -1.075  -2.202 -56.262  0.00  0.00    -0.050 A 
ATOM     24  H   UNL     1      -0.010  -2.219 -56.442  0.00  0.00    +0.062 HD
BRANCH  20  25
ATOM     25  O   UNL     1      -4.177  -1.799 -58.115  0.00  0.00    -0.507 OA
ATOM     26  H   UNL     1      -4.470  -2.675 -58.400  0.00  0.00    +0.292 HD
ENDBRANCH  20  25
ENDBRANCH   7  15
BRANCH  11  27
ATOM     27  O   UNL     1      -1.880  -3.238 -49.769  0.00  0.00    -0.506 OA
ATOM     28  H   UNL     1      -2.349  -3.318 -50.610  0.00  0.00    +0.292 HD
ENDBRANCH  11  27
BRANCH  14  29
ATOM     29  O   UNL     1       2.611  -2.584 -48.363  0.00  0.00    -0.507 OA
ATOM     30  H   UNL     1       2.896  -3.482 -48.146  0.00  0.00    +0.292 HD
ENDBRANCH  14  29
TORSDOF 4
