REMARK  Name = GEN
REMARK  4 active torsions:
REMARK  status: ('A' for Active; 'I' for Inactive)
REMARK    1  A    between atoms: C_2  and  O_3
REMARK    2  A    between atoms: C_5  and  O_6
REMARK    3  A    between atoms: C_10  and  C_14
REMARK    4  A    between atoms: C_17  and  O_18
REMARK                            x       y       z     vdW  Elec       q    Type
REMARK                         _______ _______ _______ _____ _____    ______ ____
ROOT
ATOM      1  C   UNL     1      11.515 -14.339 -31.991  0.00  0.00    +0.023 A 
ATOM      2  H   UNL     1      11.666 -13.753 -32.886  0.00  0.00    +0.069 HD
ATOM      3  C   UNL     1      11.144 -13.716 -30.810  0.00  0.00    +0.145 A 
ATOM      4  O   UNL     1      10.961 -12.380 -30.759  0.00  0.00    -0.462 OA
ATOM      5  C   UNL     1      10.886 -11.705 -29.607  0.00  0.00    +0.104 A 
ATOM      6  H   UNL     1      10.982 -10.630 -29.624  0.00  0.00    +0.104 HD
ATOM      7  C   UNL     1      10.695 -12.331 -28.417  0.00  0.00    +0.064 A 
ATOM      8  C   UNL     1      10.583 -13.801 -28.408  0.00  0.00    +0.204 A 
ATOM      9  O   UNL     1      10.198 -14.411 -27.425  0.00  0.00    -0.286 OA
ATOM     10  C   UNL     1      10.955 -14.492 -29.653  0.00  0.00    +0.106 A 
ATOM     11  C   UNL     1      11.130 -15.881 -29.695  0.00  0.00    +0.135 A 
ATOM     12  C   UNL     1      11.497 -16.482 -30.884  0.00  0.00    +0.022 A 
ATOM     13  H   UNL     1      11.635 -17.553 -30.927  0.00  0.00    +0.069 HD
ATOM     14  C   UNL     1      11.690 -15.713 -32.027  0.00  0.00    +0.124 A 
ENDROOT
BRANCH   7  15
ATOM     15  C   UNL     1      10.605 -11.555 -27.155  0.00  0.00    -0.011 A 
ATOM     16  C   UNL     1      10.207 -10.221 -27.184  0.00  0.00    -0.050 A 
ATOM     17  H   UNL     1       9.965  -9.748 -28.125  0.00  0.00    +0.062 HD
ATOM     18  C   UNL     1      10.119  -9.504 -26.009  0.00  0.00    -0.020 A 
ATOM     19  H   UNL     1       9.811  -8.468 -26.031  0.00  0.00    +0.065 HD
ATOM     20  C   UNL     1      10.436 -10.108 -24.800  0.00  0.00    +0.117 A 
ATOM     21  C   UNL     1      10.831 -11.436 -24.768  0.00  0.00    -0.020 A 
ATOM     22  H   UNL     1      11.073 -11.905 -23.825  0.00  0.00    +0.065 HD
ATOM     23  C   UNL     1      10.917 -12.160 -25.939  0.00  0.00    -0.050 A 
ATOM     24  H   UNL     1      11.226 -13.195 -25.914  0.00  0.00    +0.062 HD
BRANCH  20  25
ATOM     25  O   UNL     1      10.353  -9.397 -23.644  0.00  0.00    -0.507 OA
ATOM     26  H   UNL     1       9.741  -8.668 -23.808  0.00  0.00    +0.292 HD
ENDBRANCH  20  25
ENDBRANCH   7  15
BRANCH  11  27
ATOM     27  O   UNL     1      10.939 -16.629 -28.579  0.00  0.00    -0.506 OA
ATOM     28  H   UNL     1      10.090 -16.360 -28.204  0.00  0.00    +0.292 HD
ENDBRANCH  11  27
BRANCH  14  29
ATOM     29  O   UNL     1      12.056 -16.314 -33.187  0.00  0.00    -0.507 OA
ATOM     30  H   UNL     1      12.249 -15.608 -33.819  0.00  0.00    +0.292 HD
ENDBRANCH  14  29
TORSDOF 4
