REMARK  Name = GEN
REMARK  4 active torsions:
REMARK  status: ('A' for Active; 'I' for Inactive)
REMARK    1  A    between atoms: C_2  and  O_3
REMARK    2  A    between atoms: C_5  and  O_6
REMARK    3  A    between atoms: C_10  and  C_14
REMARK    4  A    between atoms: C_17  and  O_18
REMARK                            x       y       z     vdW  Elec       q    Type
REMARK                         _______ _______ _______ _____ _____    ______ ____
ROOT
ATOM      1  C   UNL     1      -0.739  -3.905 -50.924  0.00  0.00    +0.023 A 
ATOM      2  H   UNL     1       0.177  -4.465 -50.798  0.00  0.00    +0.069 HD
ATOM      3  C   UNL     1      -1.094  -3.430 -52.177  0.00  0.00    +0.145 A 
ATOM      4  O   UNL     1      -0.314  -3.664 -53.253  0.00  0.00    -0.462 OA
ATOM      5  C   UNL     1      -0.456  -3.000 -54.405  0.00  0.00    +0.104 A 
ATOM      6  H   UNL     1       0.334  -3.051 -55.139  0.00  0.00    +0.104 HD
ATOM      7  C   UNL     1      -1.563  -2.263 -54.680  0.00  0.00    +0.064 A 
ATOM      8  C   UNL     1      -2.626  -2.189 -53.661  0.00  0.00    +0.204 A 
ATOM      9  O   UNL     1      -3.729  -1.735 -53.914  0.00  0.00    -0.286 OA
ATOM     10  C   UNL     1      -2.286  -2.698 -52.323  0.00  0.00    +0.106 A 
ATOM     11  C   UNL     1      -3.110  -2.460 -51.217  0.00  0.00    +0.135 A 
ATOM     12  C   UNL     1      -2.739  -2.944 -49.977  0.00  0.00    +0.022 A 
ATOM     13  H   UNL     1      -3.368  -2.765 -49.117  0.00  0.00    +0.069 HD
ATOM     14  C   UNL     1      -1.556  -3.662 -49.832  0.00  0.00    +0.124 A 
ENDROOT
BRANCH   7  15
ATOM     15  C   UNL     1      -1.699  -1.546 -55.971  0.00  0.00    -0.011 A 
ATOM     16  C   UNL     1      -1.000  -1.988 -57.092  0.00  0.00    -0.050 A 
ATOM     17  H   UNL     1      -0.356  -2.854 -57.021  0.00  0.00    +0.062 HD
ATOM     18  C   UNL     1      -1.132  -1.323 -58.293  0.00  0.00    -0.020 A 
ATOM     19  H   UNL     1      -0.589  -1.666 -59.162  0.00  0.00    +0.065 HD
ATOM     20  C   UNL     1      -1.953  -0.208 -58.383  0.00  0.00    +0.117 A 
ATOM     21  C   UNL     1      -2.652   0.234 -57.270  0.00  0.00    -0.020 A 
ATOM     22  H   UNL     1      -3.294   1.100 -57.345  0.00  0.00    +0.065 HD
ATOM     23  C   UNL     1      -2.528  -0.429 -56.068  0.00  0.00    -0.050 A 
ATOM     24  H   UNL     1      -3.071  -0.084 -55.200  0.00  0.00    +0.062 HD
BRANCH  20  25
ATOM     25  O   UNL     1      -2.078   0.448 -59.567  0.00  0.00    -0.507 OA
ATOM     26  H   UNL     1      -2.857   0.083 -60.008  0.00  0.00    +0.292 HD
ENDBRANCH  20  25
ENDBRANCH   7  15
BRANCH  11  27
ATOM     27  O   UNL     1      -4.264  -1.761 -51.361  0.00  0.00    -0.506 OA
ATOM     28  H   UNL     1      -4.392  -1.626 -52.309  0.00  0.00    +0.292 HD
ENDBRANCH  11  27
BRANCH  14  29
ATOM     29  O   UNL     1      -1.199  -4.128 -48.609  0.00  0.00    -0.507 OA
ATOM     30  H   UNL     1      -0.271  -3.890 -48.479  0.00  0.00    +0.292 HD
ENDBRANCH  14  29
TORSDOF 4
