REMARK  Name = GEN
REMARK  4 active torsions:
REMARK  status: ('A' for Active; 'I' for Inactive)
REMARK    1  A    between atoms: C_2  and  O_3
REMARK    2  A    between atoms: C_5  and  O_6
REMARK    3  A    between atoms: C_10  and  C_14
REMARK    4  A    between atoms: C_17  and  O_18
REMARK                            x       y       z     vdW  Elec       q    Type
REMARK                         _______ _______ _______ _____ _____    ______ ____
ROOT
ATOM      1  C   UNL     1       2.618  -2.708 -50.690  0.00  0.00    +0.023 A 
ATOM      2  H   UNL     1       3.659  -2.622 -50.966  0.00  0.00    +0.069 HD
ATOM      3  C   UNL     1       1.647  -2.819 -51.673  0.00  0.00    +0.145 A 
ATOM      4  O   UNL     1       1.983  -2.828 -52.980  0.00  0.00    -0.462 OA
ATOM      5  C   UNL     1       1.088  -2.646 -53.956  0.00  0.00    +0.104 A 
ATOM      6  H   UNL     1       1.439  -2.423 -54.952  0.00  0.00    +0.104 HD
ATOM      7  C   UNL     1      -0.249  -2.732 -53.733  0.00  0.00    +0.064 A 
ATOM      8  C   UNL     1      -0.713  -3.021 -52.363  0.00  0.00    +0.204 A 
ATOM      9  O   UNL     1      -1.870  -3.326 -52.127  0.00  0.00    -0.286 OA
ATOM     10  C   UNL     1       0.296  -2.926 -51.297  0.00  0.00    +0.106 A 
ATOM     11  C   UNL     1      -0.064  -2.931 -49.944  0.00  0.00    +0.135 A 
ATOM     12  C   UNL     1       0.920  -2.822 -48.980  0.00  0.00    +0.022 A 
ATOM     13  H   UNL     1       0.652  -2.824 -47.933  0.00  0.00    +0.069 HD
ATOM     14  C   UNL     1       2.255  -2.709 -49.352  0.00  0.00    +0.124 A 
ENDROOT
BRANCH   7  15
ATOM     15  C   UNL     1      -1.219  -2.537 -54.838  0.00  0.00    -0.011 A 
ATOM     16  C   UNL     1      -2.354  -3.341 -54.921  0.00  0.00    -0.050 A 
ATOM     17  H   UNL     1      -2.527  -4.109 -54.181  0.00  0.00    +0.062 HD
ATOM     18  C   UNL     1      -3.257  -3.154 -55.946  0.00  0.00    -0.020 A 
ATOM     19  H   UNL     1      -4.136  -3.778 -56.011  0.00  0.00    +0.065 HD
ATOM     20  C   UNL     1      -3.032  -2.172 -56.900  0.00  0.00    +0.117 A 
ATOM     21  C   UNL     1      -1.904  -1.368 -56.820  0.00  0.00    -0.020 A 
ATOM     22  H   UNL     1      -1.734  -0.601 -57.561  0.00  0.00    +0.065 HD
ATOM     23  C   UNL     1      -1.000  -1.547 -55.794  0.00  0.00    -0.050 A 
ATOM     24  H   UNL     1      -0.121  -0.922 -55.732  0.00  0.00    +0.062 HD
BRANCH  20  25
ATOM     25  O   UNL     1      -3.921  -1.992 -57.912  0.00  0.00    -0.507 OA
ATOM     26  H   UNL     1      -4.194  -2.872 -58.204  0.00  0.00    +0.292 HD
ENDBRANCH  20  25
ENDBRANCH   7  15
BRANCH  11  27
ATOM     27  O   UNL     1      -1.367  -3.042 -49.584  0.00  0.00    -0.506 OA
ATOM     28  H   UNL     1      -1.862  -3.253 -50.386  0.00  0.00    +0.292 HD
ENDBRANCH  11  27
BRANCH  14  29
ATOM     29  O   UNL     1       3.212  -2.598 -48.396  0.00  0.00    -0.507 OA
ATOM     30  H   UNL     1       3.494  -3.496 -48.177  0.00  0.00    +0.292 HD
ENDBRANCH  14  29
TORSDOF 4
