REMARK  Name = GEN
REMARK  4 active torsions:
REMARK  status: ('A' for Active; 'I' for Inactive)
REMARK    1  A    between atoms: C_2  and  O_3
REMARK    2  A    between atoms: C_5  and  O_6
REMARK    3  A    between atoms: C_10  and  C_14
REMARK    4  A    between atoms: C_17  and  O_18
REMARK                            x       y       z     vdW  Elec       q    Type
REMARK                         _______ _______ _______ _____ _____    ______ ____
ROOT
ATOM      1  C   UNL     1      -1.054 -30.376 -52.617  0.00  0.00    +0.023 A 
ATOM      2  H   UNL     1      -1.768 -30.207 -51.824  0.00  0.00    +0.069 HD
ATOM      3  C   UNL     1      -1.483 -30.440 -53.934  0.00  0.00    +0.145 A 
ATOM      4  O   UNL     1      -2.787 -30.287 -54.245  0.00  0.00    -0.462 OA
ATOM      5  C   UNL     1      -3.287 -30.618 -55.440  0.00  0.00    +0.104 A 
ATOM      6  H   UNL     1      -4.358 -30.703 -55.554  0.00  0.00    +0.104 HD
ATOM      7  C   UNL     1      -2.490 -30.853 -56.515  0.00  0.00    +0.064 A 
ATOM      8  C   UNL     1      -1.030 -30.749 -56.339  0.00  0.00    +0.204 A 
ATOM      9  O   UNL     1      -0.268 -30.730 -57.291  0.00  0.00    -0.286 OA
ATOM     10  C   UNL     1      -0.542 -30.665 -54.954  0.00  0.00    +0.106 A 
ATOM     11  C   UNL     1       0.815 -30.812 -54.645  0.00  0.00    +0.135 A 
ATOM     12  C   UNL     1       1.222 -30.742 -53.326  0.00  0.00    +0.022 A 
ATOM     13  H   UNL     1       2.268 -30.856 -53.077  0.00  0.00    +0.069 HD
ATOM     14  C   UNL     1       0.290 -30.527 -52.317  0.00  0.00    +0.124 A 
ENDROOT
BRANCH   7  15
ATOM     15  C   UNL     1      -3.073 -31.208 -57.832  0.00  0.00    -0.011 A 
ATOM     16  C   UNL     1      -2.266 -31.753 -58.828  0.00  0.00    -0.050 A 
ATOM     17  H   UNL     1      -1.214 -31.915 -58.643  0.00  0.00    +0.062 HD
ATOM     18  C   UNL     1      -2.812 -32.087 -60.050  0.00  0.00    -0.020 A 
ATOM     19  H   UNL     1      -2.186 -32.509 -60.823  0.00  0.00    +0.065 HD
ATOM     20  C   UNL     1      -4.162 -31.873 -60.290  0.00  0.00    +0.117 A 
ATOM     21  C   UNL     1      -4.969 -31.332 -59.300  0.00  0.00    -0.020 A 
ATOM     22  H   UNL     1      -6.020 -31.171 -59.489  0.00  0.00    +0.065 HD
ATOM     23  C   UNL     1      -4.430 -31.000 -58.075  0.00  0.00    -0.050 A 
ATOM     24  H   UNL     1      -5.057 -30.578 -57.304  0.00  0.00    +0.062 HD
BRANCH  20  25
ATOM     25  O   UNL     1      -4.697 -32.199 -61.497  0.00  0.00    -0.507 OA
ATOM     26  H   UNL     1      -4.647 -33.161 -61.573  0.00  0.00    +0.292 HD
ENDBRANCH  20  25
ENDBRANCH   7  15
BRANCH  11  27
ATOM     27  O   UNL     1       1.723 -31.021 -55.631  0.00  0.00    -0.506 OA
ATOM     28  H   UNL     1       1.267 -30.865 -56.469  0.00  0.00    +0.292 HD
ENDBRANCH  11  27
BRANCH  14  29
ATOM     29  O   UNL     1       0.701 -30.465 -51.025  0.00  0.00    -0.507 OA
ATOM     30  H   UNL     1       1.461 -29.868 -51.001  0.00  0.00    +0.292 HD
ENDBRANCH  14  29
TORSDOF 4
