REMARK  Name = GEN
REMARK  4 active torsions:
REMARK  status: ('A' for Active; 'I' for Inactive)
REMARK    1  A    between atoms: C_2  and  O_3
REMARK    2  A    between atoms: C_5  and  O_6
REMARK    3  A    between atoms: C_10  and  C_14
REMARK    4  A    between atoms: C_17  and  O_18
REMARK                            x       y       z     vdW  Elec       q    Type
REMARK                         _______ _______ _______ _____ _____    ______ ____
ROOT
ATOM      1  C   UNL     1      11.444 -10.591 -27.788  0.00  0.00    +0.023 A 
ATOM      2  H   UNL     1      12.066 -10.249 -28.603  0.00  0.00    +0.069 HD
ATOM      3  C   UNL     1      11.541  -9.989 -26.543  0.00  0.00    +0.145 A 
ATOM      4  O   UNL     1      12.400  -8.971 -26.330  0.00  0.00    -0.462 OA
ATOM      5  C   UNL     1      12.736  -8.554 -25.105  0.00  0.00    +0.104 A 
ATOM      6  H   UNL     1      13.596  -7.911 -24.989  0.00  0.00    +0.104 HD
ATOM      7  C   UNL     1      12.030  -8.915 -24.002  0.00  0.00    +0.064 A 
ATOM      8  C   UNL     1      10.868  -9.807 -24.175  0.00  0.00    +0.204 A 
ATOM      9  O   UNL     1      10.065  -9.998 -23.278  0.00  0.00    -0.286 OA
ATOM     10  C   UNL     1      10.728 -10.450 -25.491  0.00  0.00    +0.106 A 
ATOM     11  C   UNL     1       9.823 -11.497 -25.702  0.00  0.00    +0.135 A 
ATOM     12  C   UNL     1       9.741 -12.081 -26.952  0.00  0.00    +0.022 A 
ATOM     13  H   UNL     1       9.046 -12.891 -27.125  0.00  0.00    +0.069 HD
ATOM     14  C   UNL     1      10.550 -11.630 -27.990  0.00  0.00    +0.124 A 
ENDROOT
BRANCH   7  15
ATOM     15  C   UNL     1      12.419  -8.428 -22.656  0.00  0.00    -0.011 A 
ATOM     16  C   UNL     1      13.717  -7.979 -22.425  0.00  0.00    -0.050 A 
ATOM     17  H   UNL     1      14.443  -7.987 -23.226  0.00  0.00    +0.062 HD
ATOM     18  C   UNL     1      14.075  -7.522 -21.174  0.00  0.00    -0.020 A 
ATOM     19  H   UNL     1      15.082  -7.174 -20.994  0.00  0.00    +0.065 HD
ATOM     20  C   UNL     1      13.145  -7.517 -20.144  0.00  0.00    +0.117 A 
ATOM     21  C   UNL     1      11.851  -7.962 -20.371  0.00  0.00    -0.020 A 
ATOM     22  H   UNL     1      11.129  -7.952 -19.568  0.00  0.00    +0.065 HD
ATOM     23  C   UNL     1      11.486  -8.416 -21.621  0.00  0.00    -0.050 A 
ATOM     24  H   UNL     1      10.479  -8.763 -21.797  0.00  0.00    +0.062 HD
BRANCH  20  25
ATOM     25  O   UNL     1      13.501  -7.070 -18.910  0.00  0.00    -0.507 OA
ATOM     26  H   UNL     1      14.405  -6.737 -18.984  0.00  0.00    +0.292 HD
ENDBRANCH  20  25
ENDBRANCH   7  15
BRANCH  11  27
ATOM     27  O   UNL     1       9.034 -11.934 -24.689  0.00  0.00    -0.506 OA
ATOM     28  H   UNL     1       9.512 -11.761 -23.868  0.00  0.00    +0.292 HD
ENDBRANCH  11  27
BRANCH  14  29
ATOM     29  O   UNL     1      10.463 -12.214 -29.211  0.00  0.00    -0.507 OA
ATOM     30  H   UNL     1       9.997 -11.592 -29.786  0.00  0.00    +0.292 HD
ENDBRANCH  14  29
TORSDOF 4
