REMARK  Name = GEN
REMARK  4 active torsions:
REMARK  status: ('A' for Active; 'I' for Inactive)
REMARK    1  A    between atoms: C_2  and  O_3
REMARK    2  A    between atoms: C_5  and  O_6
REMARK    3  A    between atoms: C_10  and  C_14
REMARK    4  A    between atoms: C_17  and  O_18
REMARK                            x       y       z     vdW  Elec       q    Type
REMARK                         _______ _______ _______ _____ _____    ______ ____
ROOT
ATOM      1  C   UNL     1      -3.544   2.335 -44.812  0.00  0.00    +0.023 A 
ATOM      2  H   UNL     1      -2.637   2.610 -45.331  0.00  0.00    +0.069 HD
ATOM      3  C   UNL     1      -4.768   2.807 -45.258  0.00  0.00    +0.145 A 
ATOM      4  O   UNL     1      -4.849   3.605 -46.343  0.00  0.00    -0.462 OA
ATOM      5  C   UNL     1      -5.947   4.307 -46.642  0.00  0.00    +0.104 A 
ATOM      6  H   UNL     1      -5.876   5.102 -47.370  0.00  0.00    +0.104 HD
ATOM      7  C   UNL     1      -7.146   4.054 -46.057  0.00  0.00    +0.064 A 
ATOM      8  C   UNL     1      -7.221   2.976 -45.053  0.00  0.00    +0.204 A 
ATOM      9  O   UNL     1      -8.289   2.548 -44.649  0.00  0.00    -0.286 OA
ATOM     10  C   UNL     1      -5.939   2.443 -44.569  0.00  0.00    +0.106 A 
ATOM     11  C   UNL     1      -5.869   1.605 -43.449  0.00  0.00    +0.135 A 
ATOM     12  C   UNL     1      -4.639   1.144 -43.022  0.00  0.00    +0.022 A 
ATOM     13  H   UNL     1      -4.575   0.498 -42.158  0.00  0.00    +0.069 HD
ATOM     14  C   UNL     1      -3.481   1.509 -43.701  0.00  0.00    +0.124 A 
ENDROOT
BRANCH   7  15
ATOM     15  C   UNL     1      -8.350   4.842 -46.416  0.00  0.00    -0.011 A 
ATOM     16  C   UNL     1      -8.398   5.529 -47.627  0.00  0.00    -0.050 A 
ATOM     17  H   UNL     1      -7.558   5.489 -48.306  0.00  0.00    +0.062 HD
ATOM     18  C   UNL     1      -9.521   6.257 -47.961  0.00  0.00    -0.020 A 
ATOM     19  H   UNL     1      -9.559   6.791 -48.900  0.00  0.00    +0.065 HD
ATOM     20  C   UNL     1     -10.598   6.315 -47.087  0.00  0.00    +0.117 A 
ATOM     21  C   UNL     1     -10.553   5.631 -45.882  0.00  0.00    -0.020 A 
ATOM     22  H   UNL     1     -11.395   5.673 -45.206  0.00  0.00    +0.065 HD
ATOM     23  C   UNL     1      -9.436   4.897 -45.544  0.00  0.00    -0.050 A 
ATOM     24  H   UNL     1      -9.400   4.365 -44.605  0.00  0.00    +0.062 HD
BRANCH  20  25
ATOM     25  O   UNL     1     -11.701   7.037 -47.417  0.00  0.00    -0.507 OA
ATOM     26  H   UNL     1     -11.888   7.618 -46.668  0.00  0.00    +0.292 HD
ENDBRANCH  20  25
ENDBRANCH   7  15
BRANCH  11  27
ATOM     27  O   UNL     1      -7.001   1.249 -42.790  0.00  0.00    -0.506 OA
ATOM     28  H   UNL     1      -7.733   1.705 -43.225  0.00  0.00    +0.292 HD
ENDBRANCH  11  27
BRANCH  14  29
ATOM     29  O   UNL     1      -2.278   1.054 -43.269  0.00  0.00    -0.507 OA
ATOM     30  H   UNL     1      -1.703   1.003 -44.045  0.00  0.00    +0.292 HD
ENDBRANCH  14  29
TORSDOF 4
