REMARK  Name = GEN
REMARK  4 active torsions:
REMARK  status: ('A' for Active; 'I' for Inactive)
REMARK    1  A    between atoms: C_2  and  O_3
REMARK    2  A    between atoms: C_5  and  O_6
REMARK    3  A    between atoms: C_10  and  C_14
REMARK    4  A    between atoms: C_17  and  O_18
REMARK                            x       y       z     vdW  Elec       q    Type
REMARK                         _______ _______ _______ _____ _____    ______ ____
ROOT
ATOM      1  C   UNL     1     -13.939 -20.960 -34.632  0.00  0.00    +0.023 A 
ATOM      2  H   UNL     1     -13.830 -21.994 -34.337  0.00  0.00    +0.069 HD
ATOM      3  C   UNL     1     -14.001 -19.967 -33.667  0.00  0.00    +0.145 A 
ATOM      4  O   UNL     1     -13.919 -20.270 -32.355  0.00  0.00    -0.462 OA
ATOM      5  C   UNL     1     -14.254 -19.405 -31.392  0.00  0.00    +0.104 A 
ATOM      6  H   UNL     1     -14.400 -19.772 -30.388  0.00  0.00    +0.104 HD
ATOM      7  C   UNL     1     -14.419 -18.079 -31.640  0.00  0.00    +0.064 A 
ATOM      8  C   UNL     1     -14.233 -17.597 -33.021  0.00  0.00    +0.204 A 
ATOM      9  O   UNL     1     -14.149 -16.408 -33.281  0.00  0.00    -0.286 OA
ATOM     10  C   UNL     1     -14.149 -18.627 -34.068  0.00  0.00    +0.106 A 
ATOM     11  C   UNL     1     -14.223 -18.298 -35.427  0.00  0.00    +0.135 A 
ATOM     12  C   UNL     1     -14.157 -19.304 -36.373  0.00  0.00    +0.022 A 
ATOM     13  H   UNL     1     -14.213 -19.060 -37.424  0.00  0.00    +0.069 HD
ATOM     14  C   UNL     1     -14.017 -20.629 -35.976  0.00  0.00    +0.124 A 
ENDROOT
BRANCH   7  15
ATOM     15  C   UNL     1     -14.781 -17.141 -30.550  0.00  0.00    -0.011 A 
ATOM     16  C   UNL     1     -14.518 -17.477 -29.224  0.00  0.00    -0.050 A 
ATOM     17  H   UNL     1     -14.052 -18.423 -28.988  0.00  0.00    +0.062 HD
ATOM     18  C   UNL     1     -14.850 -16.600 -28.213  0.00  0.00    -0.020 A 
ATOM     19  H   UNL     1     -14.647 -16.861 -27.184  0.00  0.00    +0.065 HD
ATOM     20  C   UNL     1     -15.455 -15.388 -28.514  0.00  0.00    +0.117 A 
ATOM     21  C   UNL     1     -15.716 -15.049 -29.833  0.00  0.00    -0.020 A 
ATOM     22  H   UNL     1     -16.182 -14.102 -30.066  0.00  0.00    +0.065 HD
ATOM     23  C   UNL     1     -15.382 -15.920 -30.850  0.00  0.00    -0.050 A 
ATOM     24  H   UNL     1     -15.587 -15.656 -31.877  0.00  0.00    +0.062 HD
BRANCH  20  25
ATOM     25  O   UNL     1     -15.785 -14.527 -27.515  0.00  0.00    -0.507 OA
ATOM     26  H   UNL     1     -15.737 -13.636 -27.887  0.00  0.00    +0.292 HD
ENDBRANCH  20  25
ENDBRANCH   7  15
BRANCH  11  27
ATOM     27  O   UNL     1     -14.357 -17.004 -35.811  0.00  0.00    -0.506 OA
ATOM     28  H   UNL     1     -14.477 -16.484 -35.006  0.00  0.00    +0.292 HD
ENDBRANCH  11  27
BRANCH  14  29
ATOM     29  O   UNL     1     -13.958 -21.609 -36.913  0.00  0.00    -0.507 OA
ATOM     30  H   UNL     1     -13.112 -21.508 -37.370  0.00  0.00    +0.292 HD
ENDBRANCH  14  29
TORSDOF 4
