REMARK  Name = GEN
REMARK  4 active torsions:
REMARK  status: ('A' for Active; 'I' for Inactive)
REMARK    1  A    between atoms: C_2  and  O_3
REMARK    2  A    between atoms: C_5  and  O_6
REMARK    3  A    between atoms: C_10  and  C_14
REMARK    4  A    between atoms: C_17  and  O_18
REMARK                            x       y       z     vdW  Elec       q    Type
REMARK                         _______ _______ _______ _____ _____    ______ ____
ROOT
ATOM      1  C   UNL     1       2.739  -2.752 -50.801  0.00  0.00    +0.023 A 
ATOM      2  H   UNL     1       3.764  -2.740 -51.142  0.00  0.00    +0.069 HD
ATOM      3  C   UNL     1       1.705  -2.857 -51.719  0.00  0.00    +0.145 A 
ATOM      4  O   UNL     1       1.960  -2.952 -53.041  0.00  0.00    -0.462 OA
ATOM      5  C   UNL     1       1.017  -2.769 -53.972  0.00  0.00    +0.104 A 
ATOM      6  H   UNL     1       1.319  -2.619 -54.998  0.00  0.00    +0.104 HD
ATOM      7  C   UNL     1      -0.306  -2.766 -53.666  0.00  0.00    +0.064 A 
ATOM      8  C   UNL     1      -0.701  -2.956 -52.258  0.00  0.00    +0.204 A 
ATOM      9  O   UNL     1      -1.856  -3.180 -51.939  0.00  0.00    -0.286 OA
ATOM     10  C   UNL     1       0.376  -2.865 -51.260  0.00  0.00    +0.106 A 
ATOM     11  C   UNL     1       0.100  -2.779 -49.890  0.00  0.00    +0.135 A 
ATOM     12  C   UNL     1       1.145  -2.678 -48.992  0.00  0.00    +0.022 A 
ATOM     13  H   UNL     1       0.942  -2.611 -47.933  0.00  0.00    +0.069 HD
ATOM     14  C   UNL     1       2.459  -2.663 -49.447  0.00  0.00    +0.124 A 
ENDROOT
BRANCH   7  15
ATOM     15  C   UNL     1      -1.330  -2.571 -54.722  0.00  0.00    -0.011 A 
ATOM     16  C   UNL     1      -2.624  -3.053 -54.537  0.00  0.00    -0.050 A 
ATOM     17  H   UNL     1      -2.883  -3.570 -53.624  0.00  0.00    +0.062 HD
ATOM     18  C   UNL     1      -3.575  -2.866 -55.517  0.00  0.00    -0.020 A 
ATOM     19  H   UNL     1      -4.579  -3.240 -55.374  0.00  0.00    +0.065 HD
ATOM     20  C   UNL     1      -3.242  -2.208 -56.693  0.00  0.00    +0.117 A 
ATOM     21  C   UNL     1      -1.956  -1.726 -56.880  0.00  0.00    -0.020 A 
ATOM     22  H   UNL     1      -1.701  -1.210 -57.794  0.00  0.00    +0.065 HD
ATOM     23  C   UNL     1      -1.001  -1.905 -55.901  0.00  0.00    -0.050 A 
ATOM     24  H   UNL     1       0.002  -1.531 -56.048  0.00  0.00    +0.062 HD
BRANCH  20  25
ATOM     25  O   UNL     1      -4.181  -2.029 -57.660  0.00  0.00    -0.507 OA
ATOM     26  H   UNL     1      -4.378  -2.903 -58.022  0.00  0.00    +0.292 HD
ENDBRANCH  20  25
ENDBRANCH   7  15
BRANCH  11  27
ATOM     27  O   UNL     1      -1.183  -2.796 -49.449  0.00  0.00    -0.506 OA
ATOM     28  H   UNL     1      -1.740  -2.986 -50.215  0.00  0.00    +0.292 HD
ENDBRANCH  11  27
BRANCH  14  29
ATOM     29  O   UNL     1       3.477  -2.558 -48.556  0.00  0.00    -0.507 OA
ATOM     30  H   UNL     1       3.487  -3.379 -48.045  0.00  0.00    +0.292 HD
ENDBRANCH  14  29
TORSDOF 4
