REMARK  Name = GEN
REMARK  4 active torsions:
REMARK  status: ('A' for Active; 'I' for Inactive)
REMARK    1  A    between atoms: C_2  and  O_3
REMARK    2  A    between atoms: C_5  and  O_6
REMARK    3  A    between atoms: C_10  and  C_14
REMARK    4  A    between atoms: C_17  and  O_18
REMARK                            x       y       z     vdW  Elec       q    Type
REMARK                         _______ _______ _______ _____ _____    ______ ____
ROOT
ATOM      1  C   UNL     1      -1.777  -5.012 -51.129  0.00  0.00    +0.023 A 
ATOM      2  H   UNL     1      -1.014  -5.770 -51.021  0.00  0.00    +0.069 HD
ATOM      3  C   UNL     1      -2.024  -4.449 -52.371  0.00  0.00    +0.145 A 
ATOM      4  O   UNL     1      -1.327  -4.839 -53.459  0.00  0.00    -0.462 OA
ATOM      5  C   UNL     1      -1.323  -4.142 -54.600  0.00  0.00    +0.104 A 
ATOM      6  H   UNL     1      -0.571  -4.363 -55.343  0.00  0.00    +0.104 HD
ATOM      7  C   UNL     1      -2.233  -3.166 -54.852  0.00  0.00    +0.064 A 
ATOM      8  C   UNL     1      -3.242  -2.866 -53.820  0.00  0.00    +0.204 A 
ATOM      9  O   UNL     1      -4.213  -2.167 -54.055  0.00  0.00    -0.286 OA
ATOM     10  C   UNL     1      -3.017  -3.461 -52.494  0.00  0.00    +0.106 A 
ATOM     11  C   UNL     1      -3.755  -3.057 -51.375  0.00  0.00    +0.135 A 
ATOM     12  C   UNL     1      -3.495  -3.633 -50.146  0.00  0.00    +0.022 A 
ATOM     13  H   UNL     1      -4.059  -3.327 -49.276  0.00  0.00    +0.069 HD
ATOM     14  C   UNL     1      -2.508  -4.605 -50.024  0.00  0.00    +0.124 A 
ENDROOT
BRANCH   7  15
ATOM     15  C   UNL     1      -2.210  -2.417 -56.133  0.00  0.00    -0.011 A 
ATOM     16  C   UNL     1      -1.000  -2.177 -56.779  0.00  0.00    -0.050 A 
ATOM     17  H   UNL     1      -0.076  -2.534 -56.348  0.00  0.00    +0.062 HD
ATOM     18  C   UNL     1      -0.982  -1.485 -57.972  0.00  0.00    -0.020 A 
ATOM     19  H   UNL     1      -0.044  -1.298 -58.474  0.00  0.00    +0.065 HD
ATOM     20  C   UNL     1      -2.168  -1.020 -58.524  0.00  0.00    +0.117 A 
ATOM     21  C   UNL     1      -3.375  -1.259 -57.883  0.00  0.00    -0.020 A 
ATOM     22  H   UNL     1      -4.296  -0.899 -58.318  0.00  0.00    +0.065 HD
ATOM     23  C   UNL     1      -3.399  -1.954 -56.693  0.00  0.00    -0.050 A 
ATOM     24  H   UNL     1      -4.339  -2.139 -56.193  0.00  0.00    +0.062 HD
BRANCH  20  25
ATOM     25  O   UNL     1      -2.148  -0.335 -59.698  0.00  0.00    -0.507 OA
ATOM     26  H   UNL     1      -2.626  -0.872 -60.343  0.00  0.00    +0.292 HD
ENDBRANCH  20  25
ENDBRANCH   7  15
BRANCH  11  27
ATOM     27  O   UNL     1      -4.719  -2.109 -51.497  0.00  0.00    -0.506 OA
ATOM     28  H   UNL     1      -4.914  -2.028 -52.439  0.00  0.00    +0.292 HD
ENDBRANCH  11  27
BRANCH  14  29
ATOM     29  O   UNL     1      -2.258  -5.160 -48.811  0.00  0.00    -0.507 OA
ATOM     30  H   UNL     1      -2.744  -5.995 -48.780  0.00  0.00    +0.292 HD
ENDBRANCH  14  29
TORSDOF 4
