REMARK  Name = GEN
REMARK  4 active torsions:
REMARK  status: ('A' for Active; 'I' for Inactive)
REMARK    1  A    between atoms: C_2  and  O_3
REMARK    2  A    between atoms: C_5  and  O_6
REMARK    3  A    between atoms: C_10  and  C_14
REMARK    4  A    between atoms: C_17  and  O_18
REMARK                            x       y       z     vdW  Elec       q    Type
REMARK                         _______ _______ _______ _____ _____    ______ ____
ROOT
ATOM      1  C   UNL     1       8.458 -11.596 -26.001  0.00  0.00    +0.023 A 
ATOM      2  H   UNL     1       7.798 -12.445 -25.895  0.00  0.00    +0.069 HD
ATOM      3  C   UNL     1       9.143 -11.110 -24.897  0.00  0.00    +0.145 A 
ATOM      4  O   UNL     1       9.004 -11.689 -23.686  0.00  0.00    -0.462 OA
ATOM      5  C   UNL     1       9.406 -11.100 -22.555  0.00  0.00    +0.104 A 
ATOM      6  H   UNL     1       9.057 -11.489 -21.611  0.00  0.00    +0.104 HD
ATOM      7  C   UNL     1      10.238 -10.026 -22.558  0.00  0.00    +0.064 A 
ATOM      8  C   UNL     1      10.692  -9.496 -23.857  0.00  0.00    +0.204 A 
ATOM      9  O   UNL     1      11.599  -8.684 -23.939  0.00  0.00    -0.286 OA
ATOM     10  C   UNL     1       9.995 -10.002 -25.049  0.00  0.00    +0.106 A 
ATOM     11  C   UNL     1      10.158  -9.401 -26.304  0.00  0.00    +0.135 A 
ATOM     12  C   UNL     1       9.467  -9.903 -27.391  0.00  0.00    +0.022 A 
ATOM     13  H   UNL     1       9.586  -9.445 -28.363  0.00  0.00    +0.069 HD
ATOM     14  C   UNL     1       8.620 -10.995 -27.238  0.00  0.00    +0.124 A 
ENDROOT
BRANCH   7  15
ATOM     15  C   UNL     1      10.677  -9.400 -21.287  0.00  0.00    -0.011 A 
ATOM     16  C   UNL     1       9.972  -9.641 -20.110  0.00  0.00    -0.050 A 
ATOM     17  H   UNL     1       9.104 -10.284 -20.122  0.00  0.00    +0.062 HD
ATOM     18  C   UNL     1      10.386  -9.062 -18.929  0.00  0.00    -0.020 A 
ATOM     19  H   UNL     1       9.839  -9.249 -18.016  0.00  0.00    +0.065 HD
ATOM     20  C   UNL     1      11.497  -8.231 -18.914  0.00  0.00    +0.117 A 
ATOM     21  C   UNL     1      12.202  -7.990 -20.083  0.00  0.00    -0.020 A 
ATOM     22  H   UNL     1      13.070  -7.346 -20.067  0.00  0.00    +0.065 HD
ATOM     23  C   UNL     1      11.797  -8.570 -21.267  0.00  0.00    -0.050 A 
ATOM     24  H   UNL     1      12.345  -8.381 -22.178  0.00  0.00    +0.062 HD
BRANCH  20  25
ATOM     25  O   UNL     1      11.900  -7.658 -17.749  0.00  0.00    -0.507 OA
ATOM     26  H   UNL     1      12.483  -8.293 -17.312  0.00  0.00    +0.292 HD
ENDBRANCH  20  25
ENDBRANCH   7  15
BRANCH  11  27
ATOM     27  O   UNL     1      10.986  -8.337 -26.450  0.00  0.00    -0.506 OA
ATOM     28  H   UNL     1      11.590  -8.346 -25.696  0.00  0.00    +0.292 HD
ENDBRANCH  11  27
BRANCH  14  29
ATOM     29  O   UNL     1       7.944 -11.475 -28.312  0.00  0.00    -0.507 OA
ATOM     30  H   UNL     1       8.584 -11.557 -29.032  0.00  0.00    +0.292 HD
ENDBRANCH  14  29
TORSDOF 4
