REMARK  Name = GEN
REMARK  4 active torsions:
REMARK  status: ('A' for Active; 'I' for Inactive)
REMARK    1  A    between atoms: C_2  and  O_3
REMARK    2  A    between atoms: C_5  and  O_6
REMARK    3  A    between atoms: C_10  and  C_14
REMARK    4  A    between atoms: C_17  and  O_18
REMARK                            x       y       z     vdW  Elec       q    Type
REMARK                         _______ _______ _______ _____ _____    ______ ____
ROOT
ATOM      1  C   UNL     1       7.225   3.205 -26.735  0.00  0.00    +0.023 A 
ATOM      2  H   UNL     1       6.325   3.012 -26.168  0.00  0.00    +0.069 HD
ATOM      3  C   UNL     1       8.381   2.490 -26.464  0.00  0.00    +0.145 A 
ATOM      4  O   UNL     1       8.401   1.544 -25.502  0.00  0.00    -0.462 OA
ATOM      5  C   UNL     1       9.537   1.037 -25.012  0.00  0.00    +0.104 A 
ATOM      6  H   UNL     1       9.504   0.473 -24.092  0.00  0.00    +0.104 HD
ATOM      7  C   UNL     1      10.731   1.210 -25.636  0.00  0.00    +0.064 A 
ATOM      8  C   UNL     1      10.762   1.996 -26.883  0.00  0.00    +0.204 A 
ATOM      9  O   UNL     1      11.742   2.013 -27.609  0.00  0.00    -0.286 OA
ATOM     10  C   UNL     1       9.544   2.756 -27.207  0.00  0.00    +0.106 A 
ATOM     11  C   UNL     1       9.533   3.725 -28.217  0.00  0.00    +0.135 A 
ATOM     12  C   UNL     1       8.369   4.425 -28.473  0.00  0.00    +0.022 A 
ATOM     13  H   UNL     1       8.351   5.176 -29.250  0.00  0.00    +0.069 HD
ATOM     14  C   UNL     1       7.220   4.166 -27.733  0.00  0.00    +0.124 A 
ENDROOT
BRANCH   7  15
ATOM     15  C   UNL     1      11.974   0.626 -25.076  0.00  0.00    -0.011 A 
ATOM     16  C   UNL     1      13.206   0.919 -25.656  0.00  0.00    -0.050 A 
ATOM     17  H   UNL     1      13.258   1.572 -26.516  0.00  0.00    +0.062 HD
ATOM     18  C   UNL     1      14.361   0.379 -25.130  0.00  0.00    -0.020 A 
ATOM     19  H   UNL     1      15.317   0.606 -25.580  0.00  0.00    +0.065 HD
ATOM     20  C   UNL     1      14.296  -0.464 -24.029  0.00  0.00    +0.117 A 
ATOM     21  C   UNL     1      13.071  -0.757 -23.448  0.00  0.00    -0.020 A 
ATOM     22  H   UNL     1      13.024  -1.409 -22.589  0.00  0.00    +0.065 HD
ATOM     23  C   UNL     1      11.913  -0.216 -23.967  0.00  0.00    -0.050 A 
ATOM     24  H   UNL     1      10.959  -0.445 -23.515  0.00  0.00    +0.062 HD
BRANCH  20  25
ATOM     25  O   UNL     1      15.435  -0.998 -23.515  0.00  0.00    -0.507 OA
ATOM     26  H   UNL     1      16.095  -0.293 -23.508  0.00  0.00    +0.292 HD
ENDBRANCH  20  25
ENDBRANCH   7  15
BRANCH  11  27
ATOM     27  O   UNL     1      10.655   3.975 -28.939  0.00  0.00    -0.506 OA
ATOM     28  H   UNL     1      10.965   3.124 -29.277  0.00  0.00    +0.292 HD
ENDBRANCH  11  27
BRANCH  14  29
ATOM     29  O   UNL     1       6.085   4.863 -27.989  0.00  0.00    -0.507 OA
ATOM     30  H   UNL     1       5.718   4.508 -28.811  0.00  0.00    +0.292 HD
ENDBRANCH  14  29
TORSDOF 4
