REMARK  Name = GEN
REMARK  4 active torsions:
REMARK  status: ('A' for Active; 'I' for Inactive)
REMARK    1  A    between atoms: C_2  and  O_3
REMARK    2  A    between atoms: C_5  and  O_6
REMARK    3  A    between atoms: C_10  and  C_14
REMARK    4  A    between atoms: C_17  and  O_18
REMARK                            x       y       z     vdW  Elec       q    Type
REMARK                         _______ _______ _______ _____ _____    ______ ____
ROOT
ATOM      1  C   UNL     1      -0.548  -4.262 -52.081  0.00  0.00    +0.023 A 
ATOM      2  H   UNL     1      -0.052  -5.221 -52.136  0.00  0.00    +0.069 HD
ATOM      3  C   UNL     1      -0.948  -3.622 -53.244  0.00  0.00    +0.145 A 
ATOM      4  O   UNL     1      -0.734  -4.182 -54.452  0.00  0.00    -0.462 OA
ATOM      5  C   UNL     1      -0.836  -3.495 -55.594  0.00  0.00    +0.104 A 
ATOM      6  H   UNL     1      -0.425  -3.919 -56.498  0.00  0.00    +0.104 HD
ATOM      7  C   UNL     1      -1.440  -2.279 -55.653  0.00  0.00    +0.064 A 
ATOM      8  C   UNL     1      -1.981  -1.706 -54.407  0.00  0.00    +0.204 A 
ATOM      9  O   UNL     1      -2.719  -0.735 -54.413  0.00  0.00    -0.286 OA
ATOM     10  C   UNL     1      -1.587  -2.372 -53.156  0.00  0.00    +0.106 A 
ATOM     11  C   UNL     1      -1.826  -1.786 -51.907  0.00  0.00    +0.135 A 
ATOM     12  C   UNL     1      -1.422  -2.443 -50.760  0.00  0.00    +0.022 A 
ATOM     13  H   UNL     1      -1.601  -1.998 -49.792  0.00  0.00    +0.069 HD
ATOM     14  C   UNL     1      -0.784  -3.675 -50.848  0.00  0.00    +0.124 A 
ENDROOT
BRANCH   7  15
ATOM     15  C   UNL     1      -1.548  -1.545 -56.936  0.00  0.00    -0.011 A 
ATOM     16  C   UNL     1      -0.521  -1.621 -57.873  0.00  0.00    -0.050 A 
ATOM     17  H   UNL     1       0.358  -2.214 -57.665  0.00  0.00    +0.062 HD
ATOM     18  C   UNL     1      -0.627  -0.941 -59.068  0.00  0.00    -0.020 A 
ATOM     19  H   UNL     1       0.171  -1.000 -59.795  0.00  0.00    +0.065 HD
ATOM     20  C   UNL     1      -1.752  -0.173 -59.334  0.00  0.00    +0.117 A 
ATOM     21  C   UNL     1      -2.778  -0.096 -58.404  0.00  0.00    -0.020 A 
ATOM     22  H   UNL     1      -3.655   0.498 -58.616  0.00  0.00    +0.065 HD
ATOM     23  C   UNL     1      -2.680  -0.778 -57.209  0.00  0.00    -0.050 A 
ATOM     24  H   UNL     1      -3.478  -0.717 -56.484  0.00  0.00    +0.062 HD
BRANCH  20  25
ATOM     25  O   UNL     1      -1.852   0.499 -60.511  0.00  0.00    -0.507 OA
ATOM     26  H   UNL     1      -2.621   0.140 -60.974  0.00  0.00    +0.292 HD
ENDBRANCH  20  25
ENDBRANCH   7  15
BRANCH  11  27
ATOM     27  O   UNL     1      -2.451  -0.584 -51.823  0.00  0.00    -0.506 OA
ATOM     28  H   UNL     1      -2.042  -0.010 -52.484  0.00  0.00    +0.292 HD
ENDBRANCH  11  27
BRANCH  14  29
ATOM     29  O   UNL     1      -0.386  -4.308 -49.716  0.00  0.00    -0.507 OA
ATOM     30  H   UNL     1       0.507  -3.995 -49.519  0.00  0.00    +0.292 HD
ENDBRANCH  14  29
TORSDOF 4
