REMARK  Name = GEN
REMARK  4 active torsions:
REMARK  status: ('A' for Active; 'I' for Inactive)
REMARK    1  A    between atoms: C_2  and  O_3
REMARK    2  A    between atoms: C_5  and  O_6
REMARK    3  A    between atoms: C_10  and  C_14
REMARK    4  A    between atoms: C_17  and  O_18
REMARK                            x       y       z     vdW  Elec       q    Type
REMARK                         _______ _______ _______ _____ _____    ______ ____
ROOT
ATOM      1  C   UNL     1      -4.615 -12.167 -60.167  0.00  0.00    +0.023 A 
ATOM      2  H   UNL     1      -5.296 -11.353 -59.965  0.00  0.00    +0.069 HD
ATOM      3  C   UNL     1      -3.319 -11.900 -60.581  0.00  0.00    +0.145 A 
ATOM      4  O   UNL     1      -2.889 -10.630 -60.732  0.00  0.00    -0.462 OA
ATOM      5  C   UNL     1      -1.767 -10.322 -61.391  0.00  0.00    +0.104 A 
ATOM      6  H   UNL     1      -1.599  -9.297 -61.687  0.00  0.00    +0.104 HD
ATOM      7  C   UNL     1      -0.832 -11.258 -61.700  0.00  0.00    +0.064 A 
ATOM      8  C   UNL     1      -1.084 -12.656 -61.303  0.00  0.00    +0.204 A 
ATOM      9  O   UNL     1      -0.209 -13.504 -61.349  0.00  0.00    -0.286 OA
ATOM     10  C   UNL     1      -2.446 -12.970 -60.844  0.00  0.00    +0.106 A 
ATOM     11  C   UNL     1      -2.877 -14.292 -60.679  0.00  0.00    +0.135 A 
ATOM     12  C   UNL     1      -4.171 -14.537 -60.263  0.00  0.00    +0.022 A 
ATOM     13  H   UNL     1      -4.513 -15.554 -60.133  0.00  0.00    +0.069 HD
ATOM     14  C   UNL     1      -5.037 -13.478 -60.009  0.00  0.00    +0.124 A 
ENDROOT
BRANCH   7  15
ATOM     15  C   UNL     1       0.409 -10.885 -62.422  0.00  0.00    -0.011 A 
ATOM     16  C   UNL     1       1.326 -10.019 -61.832  0.00  0.00    -0.050 A 
ATOM     17  H   UNL     1       1.133  -9.616 -60.848  0.00  0.00    +0.062 HD
ATOM     18  C   UNL     1       2.481  -9.678 -62.503  0.00  0.00    -0.020 A 
ATOM     19  H   UNL     1       3.192  -9.005 -62.046  0.00  0.00    +0.065 HD
ATOM     20  C   UNL     1       2.726 -10.190 -63.770  0.00  0.00    +0.117 A 
ATOM     21  C   UNL     1       1.816 -11.054 -64.359  0.00  0.00    -0.020 A 
ATOM     22  H   UNL     1       2.012 -11.455 -65.343  0.00  0.00    +0.065 HD
ATOM     23  C   UNL     1       0.661 -11.402 -63.691  0.00  0.00    -0.050 A 
ATOM     24  H   UNL     1      -0.049 -12.075 -64.151  0.00  0.00    +0.062 HD
BRANCH  20  25
ATOM     25  O   UNL     1       3.864  -9.849 -64.431  0.00  0.00    -0.507 OA
ATOM     26  H   UNL     1       3.610  -9.219 -65.118  0.00  0.00    +0.292 HD
ENDBRANCH  20  25
ENDBRANCH   7  15
BRANCH  11  27
ATOM     27  O   UNL     1      -2.030 -15.323 -60.925  0.00  0.00    -0.506 OA
ATOM     28  H   UNL     1      -1.138 -14.953 -60.949  0.00  0.00    +0.292 HD
ENDBRANCH  11  27
BRANCH  14  29
ATOM     29  O   UNL     1      -6.307 -13.730 -59.606  0.00  0.00    -0.507 OA
ATOM     30  H   UNL     1      -6.293 -13.760 -58.639  0.00  0.00    +0.292 HD
ENDBRANCH  14  29
TORSDOF 4
