REMARK  Name = GEN
REMARK  4 active torsions:
REMARK  status: ('A' for Active; 'I' for Inactive)
REMARK    1  A    between atoms: C_2  and  O_3
REMARK    2  A    between atoms: C_5  and  O_6
REMARK    3  A    between atoms: C_10  and  C_14
REMARK    4  A    between atoms: C_17  and  O_18
REMARK                            x       y       z     vdW  Elec       q    Type
REMARK                         _______ _______ _______ _____ _____    ______ ____
ROOT
ATOM      1  C   UNL     1       8.522 -10.741 -25.531  0.00  0.00    +0.023 A 
ATOM      2  H   UNL     1       7.755 -11.434 -25.218  0.00  0.00    +0.069 HD
ATOM      3  C   UNL     1       9.499 -10.335 -24.634  0.00  0.00    +0.145 A 
ATOM      4  O   UNL     1       9.512 -10.801 -23.368  0.00  0.00    -0.462 OA
ATOM      5  C   UNL     1      10.241 -10.237 -22.400  0.00  0.00    +0.104 A 
ATOM      6  H   UNL     1      10.032 -10.493 -21.372  0.00  0.00    +0.104 HD
ATOM      7  C   UNL     1      11.235  -9.352 -22.669  0.00  0.00    +0.064 A 
ATOM      8  C   UNL     1      11.497  -9.000 -24.077  0.00  0.00    +0.204 A 
ATOM      9  O   UNL     1      12.499  -8.391 -24.412  0.00  0.00    -0.286 OA
ATOM     10  C   UNL     1      10.487  -9.429 -25.056  0.00  0.00    +0.106 A 
ATOM     11  C   UNL     1      10.491  -8.948 -26.372  0.00  0.00    +0.135 A 
ATOM     12  C   UNL     1       9.511  -9.367 -27.250  0.00  0.00    +0.022 A 
ATOM     13  H   UNL     1       9.505  -9.000 -28.267  0.00  0.00    +0.069 HD
ATOM     14  C   UNL     1       8.529 -10.258 -26.830  0.00  0.00    +0.124 A 
ENDROOT
BRANCH   7  15
ATOM     15  C   UNL     1      12.036  -8.750 -21.575  0.00  0.00    -0.011 A 
ATOM     16  C   UNL     1      11.664  -8.951 -20.247  0.00  0.00    -0.050 A 
ATOM     17  H   UNL     1      10.792  -9.543 -20.013  0.00  0.00    +0.062 HD
ATOM     18  C   UNL     1      12.413  -8.395 -19.231  0.00  0.00    -0.020 A 
ATOM     19  H   UNL     1      12.125  -8.550 -18.202  0.00  0.00    +0.065 HD
ATOM     20  C   UNL     1      13.531  -7.628 -19.531  0.00  0.00    +0.117 A 
ATOM     21  C   UNL     1      13.904  -7.428 -20.851  0.00  0.00    -0.020 A 
ATOM     22  H   UNL     1      14.777  -6.835 -21.081  0.00  0.00    +0.065 HD
ATOM     23  C   UNL     1      13.162  -7.985 -21.872  0.00  0.00    -0.050 A 
ATOM     24  H   UNL     1      13.452  -7.828 -22.900  0.00  0.00    +0.062 HD
BRANCH  20  25
ATOM     25  O   UNL     1      14.265  -7.078 -18.528  0.00  0.00    -0.507 OA
ATOM     26  H   UNL     1      15.172  -7.006 -18.853  0.00  0.00    +0.292 HD
ENDBRANCH  20  25
ENDBRANCH   7  15
BRANCH  11  27
ATOM     27  O   UNL     1      11.451  -8.080 -26.779  0.00  0.00    -0.506 OA
ATOM     28  H   UNL     1      12.211  -8.209 -26.197  0.00  0.00    +0.292 HD
ENDBRANCH  11  27
BRANCH  14  29
ATOM     29  O   UNL     1       7.568 -10.658 -27.701  0.00  0.00    -0.507 OA
ATOM     30  H   UNL     1       8.022 -10.946 -28.505  0.00  0.00    +0.292 HD
ENDBRANCH  14  29
TORSDOF 4
