REMARK  Name = GEN
REMARK  4 active torsions:
REMARK  status: ('A' for Active; 'I' for Inactive)
REMARK    1  A    between atoms: C_2  and  O_3
REMARK    2  A    between atoms: C_5  and  O_6
REMARK    3  A    between atoms: C_10  and  C_14
REMARK    4  A    between atoms: C_17  and  O_18
REMARK                            x       y       z     vdW  Elec       q    Type
REMARK                         _______ _______ _______ _____ _____    ______ ____
ROOT
ATOM      1  C   UNL     1      12.006  -9.862 -27.048  0.00  0.00    +0.023 A 
ATOM      2  H   UNL     1      12.784  -9.567 -27.737  0.00  0.00    +0.069 HD
ATOM      3  C   UNL     1      11.995  -9.356 -25.757  0.00  0.00    +0.145 A 
ATOM      4  O   UNL     1      12.942  -8.488 -25.346  0.00  0.00    -0.462 OA
ATOM      5  C   UNL     1      13.142  -8.197 -24.056  0.00  0.00    +0.104 A 
ATOM      6  H   UNL     1      14.054  -7.694 -23.770  0.00  0.00    +0.104 HD
ATOM      7  C   UNL     1      12.236  -8.517 -23.096  0.00  0.00    +0.064 A 
ATOM      8  C   UNL     1      11.004  -9.218 -23.502  0.00  0.00    +0.204 A 
ATOM      9  O   UNL     1      10.057  -9.343 -22.745  0.00  0.00    -0.286 OA
ATOM     10  C   UNL     1      10.979  -9.755 -24.871  0.00  0.00    +0.106 A 
ATOM     11  C   UNL     1       9.983 -10.646 -25.290  0.00  0.00    +0.135 A 
ATOM     12  C   UNL     1      10.011 -11.136 -26.582  0.00  0.00    +0.022 A 
ATOM     13  H   UNL     1       9.248 -11.825 -26.914  0.00  0.00    +0.069 HD
ATOM     14  C   UNL     1      11.021 -10.747 -27.456  0.00  0.00    +0.124 A 
ENDROOT
BRANCH   7  15
ATOM     15  C   UNL     1      12.480  -8.172 -21.674  0.00  0.00    -0.011 A 
ATOM     16  C   UNL     1      11.421  -8.147 -20.770  0.00  0.00    -0.050 A 
ATOM     17  H   UNL     1      10.420  -8.378 -21.104  0.00  0.00    +0.062 HD
ATOM     18  C   UNL     1      11.652  -7.831 -19.448  0.00  0.00    -0.020 A 
ATOM     19  H   UNL     1      10.830  -7.812 -18.746  0.00  0.00    +0.065 HD
ATOM     20  C   UNL     1      12.936  -7.528 -19.019  0.00  0.00    +0.117 A 
ATOM     21  C   UNL     1      13.994  -7.553 -19.916  0.00  0.00    -0.020 A 
ATOM     22  H   UNL     1      14.993  -7.321 -19.578  0.00  0.00    +0.065 HD
ATOM     23  C   UNL     1      13.770  -7.873 -21.239  0.00  0.00    -0.050 A 
ATOM     24  H   UNL     1      14.593  -7.891 -21.938  0.00  0.00    +0.062 HD
BRANCH  20  25
ATOM     25  O   UNL     1      13.160  -7.213 -17.716  0.00  0.00    -0.507 OA
ATOM     26  H   UNL     1      13.803  -7.852 -17.381  0.00  0.00    +0.292 HD
ENDBRANCH  20  25
ENDBRANCH   7  15
BRANCH  11  27
ATOM     27  O   UNL     1       8.998 -11.023 -24.436  0.00  0.00    -0.506 OA
ATOM     28  H   UNL     1       9.104 -10.491 -23.636  0.00  0.00    +0.292 HD
ENDBRANCH  11  27
BRANCH  14  29
ATOM     29  O   UNL     1      11.041 -11.239 -28.720  0.00  0.00    -0.507 OA
ATOM     30  H   UNL     1      10.197 -11.001 -29.127  0.00  0.00    +0.292 HD
ENDBRANCH  14  29
TORSDOF 4
