REMARK  Name = GEN
REMARK  4 active torsions:
REMARK  status: ('A' for Active; 'I' for Inactive)
REMARK    1  A    between atoms: C_2  and  O_3
REMARK    2  A    between atoms: C_5  and  O_6
REMARK    3  A    between atoms: C_10  and  C_14
REMARK    4  A    between atoms: C_17  and  O_18
REMARK                            x       y       z     vdW  Elec       q    Type
REMARK                         _______ _______ _______ _____ _____    ______ ____
ROOT
ATOM      1  C   UNL     1       8.486 -10.524 -25.613  0.00  0.00    +0.023 A 
ATOM      2  H   UNL     1       7.680 -11.180 -25.318  0.00  0.00    +0.069 HD
ATOM      3  C   UNL     1       9.491 -10.213 -24.711  0.00  0.00    +0.145 A 
ATOM      4  O   UNL     1       9.485 -10.725 -23.463  0.00  0.00    -0.462 OA
ATOM      5  C   UNL     1      10.255 -10.243 -22.482  0.00  0.00    +0.104 A 
ATOM      6  H   UNL     1      10.037 -10.523 -21.462  0.00  0.00    +0.104 HD
ATOM      7  C   UNL     1      11.299  -9.410 -22.728  0.00  0.00    +0.064 A 
ATOM      8  C   UNL     1      11.572  -9.024 -24.125  0.00  0.00    +0.204 A 
ATOM      9  O   UNL     1      12.607  -8.465 -24.446  0.00  0.00    -0.286 OA
ATOM     10  C   UNL     1      10.530  -9.353 -25.109  0.00  0.00    +0.106 A 
ATOM     11  C   UNL     1      10.555  -8.826 -26.406  0.00  0.00    +0.135 A 
ATOM     12  C   UNL     1       9.544  -9.151 -27.290  0.00  0.00    +0.022 A 
ATOM     13  H   UNL     1       9.554  -8.748 -28.293  0.00  0.00    +0.069 HD
ATOM     14  C   UNL     1       8.513  -9.996 -26.894  0.00  0.00    +0.124 A 
ENDROOT
BRANCH   7  15
ATOM     15  C   UNL     1      12.143  -8.899 -21.620  0.00  0.00    -0.011 A 
ATOM     16  C   UNL     1      11.869  -9.270 -20.306  0.00  0.00    -0.050 A 
ATOM     17  H   UNL     1      11.040  -9.930 -20.092  0.00  0.00    +0.062 HD
ATOM     18  C   UNL     1      12.658  -8.798 -19.278  0.00  0.00    -0.020 A 
ATOM     19  H   UNL     1      12.445  -9.086 -18.259  0.00  0.00    +0.065 HD
ATOM     20  C   UNL     1      13.719  -7.947 -19.551  0.00  0.00    +0.117 A 
ATOM     21  C   UNL     1      13.996  -7.576 -20.858  0.00  0.00    -0.020 A 
ATOM     22  H   UNL     1      14.826  -6.917 -21.069  0.00  0.00    +0.065 HD
ATOM     23  C   UNL     1      13.213  -8.049 -21.891  0.00  0.00    -0.050 A 
ATOM     24  H   UNL     1      13.428  -7.760 -22.909  0.00  0.00    +0.062 HD
BRANCH  20  25
ATOM     25  O   UNL     1      14.493  -7.479 -18.536  0.00  0.00    -0.507 OA
ATOM     26  H   UNL     1      15.254  -7.044 -18.943  0.00  0.00    +0.292 HD
ENDBRANCH  20  25
ENDBRANCH   7  15
BRANCH  11  27
ATOM     27  O   UNL     1      11.563  -8.003 -26.791  0.00  0.00    -0.506 OA
ATOM     28  H   UNL     1      12.307  -8.177 -26.200  0.00  0.00    +0.292 HD
ENDBRANCH  11  27
BRANCH  14  29
ATOM     29  O   UNL     1       7.523 -10.304 -27.769  0.00  0.00    -0.507 OA
ATOM     30  H   UNL     1       7.934 -10.793 -28.495  0.00  0.00    +0.292 HD
ENDBRANCH  14  29
TORSDOF 4
