REMARK  Name = GEN
REMARK  4 active torsions:
REMARK  status: ('A' for Active; 'I' for Inactive)
REMARK    1  A    between atoms: C_2  and  O_3
REMARK    2  A    between atoms: C_5  and  O_6
REMARK    3  A    between atoms: C_10  and  C_14
REMARK    4  A    between atoms: C_17  and  O_18
REMARK                            x       y       z     vdW  Elec       q    Type
REMARK                         _______ _______ _______ _____ _____    ______ ____
ROOT
ATOM      1  C   UNL     1      -3.945 -12.619 -60.324  0.00  0.00    +0.023 A 
ATOM      2  H   UNL     1      -4.949 -12.322 -60.056  0.00  0.00    +0.069 HD
ATOM      3  C   UNL     1      -3.008 -11.658 -60.670  0.00  0.00    +0.145 A 
ATOM      4  O   UNL     1      -3.327 -10.348 -60.670  0.00  0.00    -0.462 OA
ATOM      5  C   UNL     1      -2.566  -9.419 -61.259  0.00  0.00    +0.104 A 
ATOM      6  H   UNL     1      -2.982  -8.439 -61.438  0.00  0.00    +0.104 HD
ATOM      7  C   UNL     1      -1.287  -9.672 -61.640  0.00  0.00    +0.064 A 
ATOM      8  C   UNL     1      -0.740 -11.021 -61.405  0.00  0.00    +0.204 A 
ATOM      9  O   UNL     1       0.450 -11.261 -61.517  0.00  0.00    -0.286 OA
ATOM     10  C   UNL     1      -1.707 -12.061 -61.022  0.00  0.00    +0.106 A 
ATOM     11  C   UNL     1      -1.360 -13.418 -61.013  0.00  0.00    +0.135 A 
ATOM     12  C   UNL     1      -2.309 -14.359 -60.663  0.00  0.00    +0.022 A 
ATOM     13  H   UNL     1      -2.050 -15.408 -60.655  0.00  0.00    +0.069 HD
ATOM     14  C   UNL     1      -3.597 -13.960 -60.322  0.00  0.00    +0.124 A 
ENDROOT
BRANCH   7  15
ATOM     15  C   UNL     1      -0.462  -8.620 -62.282  0.00  0.00    -0.011 A 
ATOM     16  C   UNL     1      -0.701  -7.277 -61.999  0.00  0.00    -0.050 A 
ATOM     17  H   UNL     1      -1.489  -7.000 -61.313  0.00  0.00    +0.062 HD
ATOM     18  C   UNL     1       0.071  -6.300 -62.593  0.00  0.00    -0.020 A 
ATOM     19  H   UNL     1      -0.114  -5.259 -62.374  0.00  0.00    +0.065 HD
ATOM     20  C   UNL     1       1.079  -6.654 -63.478  0.00  0.00    +0.117 A 
ATOM     21  C   UNL     1       1.321  -7.990 -63.761  0.00  0.00    -0.020 A 
ATOM     22  H   UNL     1       2.110  -8.262 -64.447  0.00  0.00    +0.065 HD
ATOM     23  C   UNL     1       0.555  -8.971 -63.167  0.00  0.00    -0.050 A 
ATOM     24  H   UNL     1       0.743 -10.012 -63.388  0.00  0.00    +0.062 HD
BRANCH  20  25
ATOM     25  O   UNL     1       1.836  -5.689 -64.065  0.00  0.00    -0.507 OA
ATOM     26  H   UNL     1       1.297  -5.299 -64.765  0.00  0.00    +0.292 HD
ENDBRANCH  20  25
ENDBRANCH   7  15
BRANCH  11  27
ATOM     27  O   UNL     1      -0.102 -13.804 -61.345  0.00  0.00    -0.506 OA
ATOM     28  H   UNL     1       0.497 -13.128 -61.002  0.00  0.00    +0.292 HD
ENDBRANCH  11  27
BRANCH  14  29
ATOM     29  O   UNL     1      -4.522 -14.894 -59.985  0.00  0.00    -0.507 OA
ATOM     30  H   UNL     1      -4.457 -15.019 -59.028  0.00  0.00    +0.292 HD
ENDBRANCH  14  29
TORSDOF 4
