REMARK  Name = GEN
REMARK  4 active torsions:
REMARK  status: ('A' for Active; 'I' for Inactive)
REMARK    1  A    between atoms: C_2  and  O_3
REMARK    2  A    between atoms: C_5  and  O_6
REMARK    3  A    between atoms: C_10  and  C_14
REMARK    4  A    between atoms: C_17  and  O_18
REMARK                            x       y       z     vdW  Elec       q    Type
REMARK                         _______ _______ _______ _____ _____    ______ ____
ROOT
ATOM      1  C   UNL     1      -3.191   2.419 -44.563  0.00  0.00    +0.023 A 
ATOM      2  H   UNL     1      -2.264   2.817 -44.951  0.00  0.00    +0.069 HD
ATOM      3  C   UNL     1      -4.400   2.822 -45.107  0.00  0.00    +0.145 A 
ATOM      4  O   UNL     1      -4.441   3.705 -46.126  0.00  0.00    -0.462 OA
ATOM      5  C   UNL     1      -5.564   4.335 -46.490  0.00  0.00    +0.104 A 
ATOM      6  H   UNL     1      -5.493   5.195 -47.139  0.00  0.00    +0.104 HD
ATOM      7  C   UNL     1      -6.788   3.926 -46.068  0.00  0.00    +0.064 A 
ATOM      8  C   UNL     1      -6.866   2.760 -45.169  0.00  0.00    +0.204 A 
ATOM      9  O   UNL     1      -7.925   2.206 -44.925  0.00  0.00    -0.286 OA
ATOM     10  C   UNL     1      -5.597   2.298 -44.587  0.00  0.00    +0.106 A 
ATOM     11  C   UNL     1      -5.567   1.371 -43.538  0.00  0.00    +0.135 A 
ATOM     12  C   UNL     1      -4.350   0.981 -43.012  0.00  0.00    +0.022 A 
ATOM     13  H   UNL     1      -4.317   0.266 -42.201  0.00  0.00    +0.069 HD
ATOM     14  C   UNL     1      -3.168   1.504 -43.522  0.00  0.00    +0.124 A 
ENDROOT
BRANCH   7  15
ATOM     15  C   UNL     1      -8.017   4.638 -46.497  0.00  0.00    -0.011 A 
ATOM     16  C   UNL     1      -8.018   5.381 -47.675  0.00  0.00    -0.050 A 
ATOM     17  H   UNL     1      -7.122   5.442 -48.277  0.00  0.00    +0.062 HD
ATOM     18  C   UNL     1      -9.163   6.037 -48.075  0.00  0.00    -0.020 A 
ATOM     19  H   UNL     1      -9.163   6.614 -48.989  0.00  0.00    +0.065 HD
ATOM     20  C   UNL     1     -10.312   5.965 -47.300  0.00  0.00    +0.117 A 
ATOM     21  C   UNL     1     -10.315   5.225 -46.127  0.00  0.00    -0.020 A 
ATOM     22  H   UNL     1     -11.212   5.167 -45.528  0.00  0.00    +0.065 HD
ATOM     23  C   UNL     1      -9.174   4.563 -45.724  0.00  0.00    -0.050 A 
ATOM     24  H   UNL     1      -9.177   3.987 -44.811  0.00  0.00    +0.062 HD
BRANCH  20  25
ATOM     25  O   UNL     1     -11.438   6.616 -47.694  0.00  0.00    -0.507 OA
ATOM     26  H   UNL     1     -11.740   7.135 -46.936  0.00  0.00    +0.292 HD
ENDBRANCH  20  25
ENDBRANCH   7  15
BRANCH  11  27
ATOM     27  O   UNL     1      -6.723   0.860 -43.043  0.00  0.00    -0.506 OA
ATOM     28  H   UNL     1      -7.440   1.215 -43.585  0.00  0.00    +0.292 HD
ENDBRANCH  11  27
BRANCH  14  29
ATOM     29  O   UNL     1      -1.979   1.117 -42.994  0.00  0.00    -0.507 OA
ATOM     30  H   UNL     1      -1.500   0.653 -43.694  0.00  0.00    +0.292 HD
ENDBRANCH  14  29
TORSDOF 4
