REMARK  Name = GEN
REMARK  4 active torsions:
REMARK  status: ('A' for Active; 'I' for Inactive)
REMARK    1  A    between atoms: C_2  and  O_3
REMARK    2  A    between atoms: C_5  and  O_6
REMARK    3  A    between atoms: C_10  and  C_14
REMARK    4  A    between atoms: C_17  and  O_18
REMARK                            x       y       z     vdW  Elec       q    Type
REMARK                         _______ _______ _______ _____ _____    ______ ____
ROOT
ATOM      1  C   UNL     1     -14.034 -22.194 -36.503  0.00  0.00    +0.023 A 
ATOM      2  H   UNL     1     -14.220 -22.154 -37.567  0.00  0.00    +0.069 HD
ATOM      3  C   UNL     1     -14.056 -23.412 -35.842  0.00  0.00    +0.145 A 
ATOM      4  O   UNL     1     -14.299 -24.559 -36.510  0.00  0.00    -0.462 OA
ATOM      5  C   UNL     1     -14.610 -25.702 -35.891  0.00  0.00    +0.104 A 
ATOM      6  H   UNL     1     -15.026 -26.513 -36.470  0.00  0.00    +0.104 HD
ATOM      7  C   UNL     1     -14.420 -25.874 -34.557  0.00  0.00    +0.064 A 
ATOM      8  C   UNL     1     -13.867 -24.751 -33.778  0.00  0.00    +0.204 A 
ATOM      9  O   UNL     1     -13.469 -24.897 -32.635  0.00  0.00    -0.286 OA
ATOM     10  C   UNL     1     -13.817 -23.447 -34.457  0.00  0.00    +0.106 A 
ATOM     11  C   UNL     1     -13.551 -22.266 -33.754  0.00  0.00    +0.135 A 
ATOM     12  C   UNL     1     -13.532 -21.062 -34.433  0.00  0.00    +0.022 A 
ATOM     13  H   UNL     1     -13.329 -20.145 -33.899  0.00  0.00    +0.069 HD
ATOM     14  C   UNL     1     -13.775 -21.027 -35.802  0.00  0.00    +0.124 A 
ENDROOT
BRANCH   7  15
ATOM     15  C   UNL     1     -14.764 -27.159 -33.899  0.00  0.00    -0.011 A 
ATOM     16  C   UNL     1     -14.006 -27.617 -32.824  0.00  0.00    -0.050 A 
ATOM     17  H   UNL     1     -13.165 -27.038 -32.469  0.00  0.00    +0.062 HD
ATOM     18  C   UNL     1     -14.331 -28.808 -32.211  0.00  0.00    -0.020 A 
ATOM     19  H   UNL     1     -13.743 -29.164 -31.377  0.00  0.00    +0.065 HD
ATOM     20  C   UNL     1     -15.407 -29.556 -32.670  0.00  0.00    +0.117 A 
ATOM     21  C   UNL     1     -16.164 -29.102 -33.739  0.00  0.00    -0.020 A 
ATOM     22  H   UNL     1     -17.004 -29.684 -34.091  0.00  0.00    +0.065 HD
ATOM     23  C   UNL     1     -15.847 -27.909 -34.353  0.00  0.00    -0.050 A 
ATOM     24  H   UNL     1     -16.437 -27.556 -35.187  0.00  0.00    +0.062 HD
BRANCH  20  25
ATOM     25  O   UNL     1     -15.723 -30.732 -32.066  0.00  0.00    -0.507 OA
ATOM     26  H   UNL     1     -16.454 -30.548 -31.462  0.00  0.00    +0.292 HD
ENDBRANCH  20  25
ENDBRANCH   7  15
BRANCH  11  27
ATOM     27  O   UNL     1     -13.313 -22.302 -32.419  0.00  0.00    -0.506 OA
ATOM     28  H   UNL     1     -12.635 -22.975 -32.274  0.00  0.00    +0.292 HD
ENDBRANCH  11  27
BRANCH  14  29
ATOM     29  O   UNL     1     -13.759 -19.839 -36.457  0.00  0.00    -0.507 OA
ATOM     30  H   UNL     1     -12.957 -19.829 -36.997  0.00  0.00    +0.292 HD
ENDBRANCH  14  29
TORSDOF 4
