REMARK  Name = GEN
REMARK  4 active torsions:
REMARK  status: ('A' for Active; 'I' for Inactive)
REMARK    1  A    between atoms: C_2  and  O_3
REMARK    2  A    between atoms: C_5  and  O_6
REMARK    3  A    between atoms: C_10  and  C_14
REMARK    4  A    between atoms: C_17  and  O_18
REMARK                            x       y       z     vdW  Elec       q    Type
REMARK                         _______ _______ _______ _____ _____    ______ ____
ROOT
ATOM      1  C   UNL     1      -6.028  -9.851 -59.505  0.00  0.00    +0.023 A 
ATOM      2  H   UNL     1      -5.849  -8.796 -59.660  0.00  0.00    +0.069 HD
ATOM      3  C   UNL     1      -5.019 -10.769 -59.753  0.00  0.00    +0.145 A 
ATOM      4  O   UNL     1      -3.805 -10.364 -60.180  0.00  0.00    -0.462 OA
ATOM      5  C   UNL     1      -2.905 -11.207 -60.699  0.00  0.00    +0.104 A 
ATOM      6  H   UNL     1      -2.062 -10.803 -61.239  0.00  0.00    +0.104 HD
ATOM      7  C   UNL     1      -3.021 -12.554 -60.569  0.00  0.00    +0.064 A 
ATOM      8  C   UNL     1      -4.187 -13.090 -59.842  0.00  0.00    +0.204 A 
ATOM      9  O   UNL     1      -4.249 -14.258 -59.498  0.00  0.00    -0.286 OA
ATOM     10  C   UNL     1      -5.270 -12.137 -59.551  0.00  0.00    +0.106 A 
ATOM     11  C   UNL     1      -6.522 -12.568 -59.096  0.00  0.00    +0.135 A 
ATOM     12  C   UNL     1      -7.513 -11.636 -58.852  0.00  0.00    +0.022 A 
ATOM     13  H   UNL     1      -8.482 -11.959 -58.502  0.00  0.00    +0.069 HD
ATOM     14  C   UNL     1      -7.266 -10.283 -59.058  0.00  0.00    +0.124 A 
ENDROOT
BRANCH   7  15
ATOM     15  C   UNL     1      -2.002 -13.464 -61.145  0.00  0.00    -0.011 A 
ATOM     16  C   UNL     1      -2.317 -14.799 -61.391  0.00  0.00    -0.050 A 
ATOM     17  H   UNL     1      -3.304 -15.173 -61.160  0.00  0.00    +0.062 HD
ATOM     18  C   UNL     1      -1.369 -15.642 -61.932  0.00  0.00    -0.020 A 
ATOM     19  H   UNL     1      -1.613 -16.677 -62.122  0.00  0.00    +0.065 HD
ATOM     20  C   UNL     1      -0.099 -15.164 -62.223  0.00  0.00    +0.117 A 
ATOM     21  C   UNL     1       0.218 -13.836 -61.981  0.00  0.00    -0.020 A 
ATOM     22  H   UNL     1       1.206 -13.466 -62.213  0.00  0.00    +0.065 HD
ATOM     23  C   UNL     1      -0.727 -12.987 -61.445  0.00  0.00    -0.050 A 
ATOM     24  H   UNL     1      -0.480 -11.953 -61.255  0.00  0.00    +0.062 HD
BRANCH  20  25
ATOM     25  O   UNL     1       0.835 -15.998 -62.753  0.00  0.00    -0.507 OA
ATOM     26  H   UNL     1       1.411 -15.456 -63.308  0.00  0.00    +0.292 HD
ENDBRANCH  20  25
ENDBRANCH   7  15
BRANCH  11  27
ATOM     27  O   UNL     1      -6.759 -13.889 -58.894  0.00  0.00    -0.506 OA
ATOM     28  H   UNL     1      -6.001 -14.238 -58.408  0.00  0.00    +0.292 HD
ENDBRANCH  11  27
BRANCH  14  29
ATOM     29  O   UNL     1      -8.249  -9.378 -58.821  0.00  0.00    -0.507 OA
ATOM     30  H   UNL     1      -8.164  -8.691 -59.496  0.00  0.00    +0.292 HD
ENDBRANCH  14  29
TORSDOF 4
