REMARK  Name = GEN
REMARK  4 active torsions:
REMARK  status: ('A' for Active; 'I' for Inactive)
REMARK    1  A    between atoms: C_2  and  O_3
REMARK    2  A    between atoms: C_5  and  O_6
REMARK    3  A    between atoms: C_10  and  C_14
REMARK    4  A    between atoms: C_17  and  O_18
REMARK                            x       y       z     vdW  Elec       q    Type
REMARK                         _______ _______ _______ _____ _____    ______ ____
ROOT
ATOM      1  C   UNL     1       9.951 -13.326 -30.553  0.00  0.00    +0.023 A 
ATOM      2  H   UNL     1      10.558 -12.986 -31.379  0.00  0.00    +0.069 HD
ATOM      3  C   UNL     1       9.953 -12.624 -29.357  0.00  0.00    +0.145 A 
ATOM      4  O   UNL     1      10.701 -11.511 -29.209  0.00  0.00    -0.462 OA
ATOM      5  C   UNL     1      10.959 -10.969 -28.014  0.00  0.00    +0.104 A 
ATOM      6  H   UNL     1      11.747 -10.235 -27.932  0.00  0.00    +0.104 HD
ATOM      7  C   UNL     1      10.261 -11.314 -26.901  0.00  0.00    +0.064 A 
ATOM      8  C   UNL     1       9.200 -12.329 -27.026  0.00  0.00    +0.204 A 
ATOM      9  O   UNL     1       8.394 -12.531 -26.133  0.00  0.00    -0.286 OA
ATOM     10  C   UNL     1       9.161 -13.082 -28.289  0.00  0.00    +0.106 A 
ATOM     11  C   UNL     1       8.371 -14.229 -28.435  0.00  0.00    +0.135 A 
ATOM     12  C   UNL     1       8.382 -14.912 -29.636  0.00  0.00    +0.022 A 
ATOM     13  H   UNL     1       7.776 -15.799 -29.757  0.00  0.00    +0.069 HD
ATOM     14  C   UNL     1       9.170 -14.462 -30.689  0.00  0.00    +0.124 A 
ENDROOT
BRANCH   7  15
ATOM     15  C   UNL     1      10.562 -10.688 -25.590  0.00  0.00    -0.011 A 
ATOM     16  C   UNL     1      11.702 -11.064 -24.882  0.00  0.00    -0.050 A 
ATOM     17  H   UNL     1      12.367 -11.813 -25.286  0.00  0.00    +0.062 HD
ATOM     18  C   UNL     1      11.982 -10.476 -23.666  0.00  0.00    -0.020 A 
ATOM     19  H   UNL     1      12.865 -10.768 -23.117  0.00  0.00    +0.065 HD
ATOM     20  C   UNL     1      11.125  -9.518 -23.143  0.00  0.00    +0.117 A 
ATOM     21  C   UNL     1       9.991  -9.140 -23.846  0.00  0.00    -0.020 A 
ATOM     22  H   UNL     1       9.328  -8.390 -23.438  0.00  0.00    +0.065 HD
ATOM     23  C   UNL     1       9.708  -9.720 -25.064  0.00  0.00    -0.050 A 
ATOM     24  H   UNL     1       8.824  -9.427 -25.611  0.00  0.00    +0.062 HD
BRANCH  20  25
ATOM     25  O   UNL     1      11.402  -8.943 -21.942  0.00  0.00    -0.507 OA
ATOM     26  H   UNL     1      10.586  -8.523 -21.640  0.00  0.00    +0.292 HD
ENDBRANCH  20  25
ENDBRANCH   7  15
BRANCH  11  27
ATOM     27  O   UNL     1       7.601 -14.664 -27.406  0.00  0.00    -0.506 OA
ATOM     28  H   UNL     1       7.022 -13.931 -27.160  0.00  0.00    +0.292 HD
ENDBRANCH  11  27
BRANCH  14  29
ATOM     29  O   UNL     1       9.177 -15.145 -31.862  0.00  0.00    -0.507 OA
ATOM     30  H   UNL     1       9.166 -16.085 -31.638  0.00  0.00    +0.292 HD
ENDBRANCH  14  29
TORSDOF 4
