REMARK  Name = GEN
REMARK  4 active torsions:
REMARK  status: ('A' for Active; 'I' for Inactive)
REMARK    1  A    between atoms: C_2  and  O_3
REMARK    2  A    between atoms: C_5  and  O_6
REMARK    3  A    between atoms: C_10  and  C_14
REMARK    4  A    between atoms: C_17  and  O_18
REMARK                            x       y       z     vdW  Elec       q    Type
REMARK                         _______ _______ _______ _____ _____    ______ ____
ROOT
ATOM      1  C   UNL     1     -13.395 -20.750 -35.515  0.00  0.00    +0.023 A 
ATOM      2  H   UNL     1     -12.550 -20.709 -34.844  0.00  0.00    +0.069 HD
ATOM      3  C   UNL     1     -14.196 -19.632 -35.690  0.00  0.00    +0.145 A 
ATOM      4  O   UNL     1     -13.932 -18.482 -35.036  0.00  0.00    -0.462 OA
ATOM      5  C   UNL     1     -14.818 -17.484 -34.946  0.00  0.00    +0.104 A 
ATOM      6  H   UNL     1     -14.651 -16.702 -34.220  0.00  0.00    +0.104 HD
ATOM      7  C   UNL     1     -15.919 -17.424 -35.738  0.00  0.00    +0.064 A 
ATOM      8  C   UNL     1     -16.140 -18.508 -36.713  0.00  0.00    +0.204 A 
ATOM      9  O   UNL     1     -16.975 -18.417 -37.597  0.00  0.00    -0.286 OA
ATOM     10  C   UNL     1     -15.296 -19.703 -36.564  0.00  0.00    +0.106 A 
ATOM     11  C   UNL     1     -15.572 -20.887 -37.259  0.00  0.00    +0.135 A 
ATOM     12  C   UNL     1     -14.760 -21.989 -37.072  0.00  0.00    +0.022 A 
ATOM     13  H   UNL     1     -14.966 -22.907 -37.603  0.00  0.00    +0.069 HD
ATOM     14  C   UNL     1     -13.677 -21.920 -36.202  0.00  0.00    +0.124 A 
ENDROOT
BRANCH   7  15
ATOM     15  C   UNL     1     -16.878 -16.298 -35.624  0.00  0.00    -0.011 A 
ATOM     16  C   UNL     1     -16.496 -15.117 -34.993  0.00  0.00    -0.050 A 
ATOM     17  H   UNL     1     -15.500 -15.019 -34.585  0.00  0.00    +0.062 HD
ATOM     18  C   UNL     1     -17.387 -14.070 -34.893  0.00  0.00    -0.020 A 
ATOM     19  H   UNL     1     -17.091 -13.153 -34.404  0.00  0.00    +0.065 HD
ATOM     20  C   UNL     1     -18.669 -14.196 -35.412  0.00  0.00    +0.117 A 
ATOM     21  C   UNL     1     -19.053 -15.370 -36.041  0.00  0.00    -0.020 A 
ATOM     22  H   UNL     1     -20.049 -15.464 -36.448  0.00  0.00    +0.065 HD
ATOM     23  C   UNL     1     -18.164 -16.419 -36.149  0.00  0.00    -0.050 A 
ATOM     24  H   UNL     1     -18.463 -17.334 -36.638  0.00  0.00    +0.062 HD
BRANCH  20  25
ATOM     25  O   UNL     1     -19.547 -13.164 -35.308  0.00  0.00    -0.507 OA
ATOM     26  H   UNL     1     -19.246 -12.478 -35.918  0.00  0.00    +0.292 HD
ENDBRANCH  20  25
ENDBRANCH   7  15
BRANCH  11  27
ATOM     27  O   UNL     1     -16.629 -20.951 -38.108  0.00  0.00    -0.506 OA
ATOM     28  H   UNL     1     -16.980 -20.054 -38.185  0.00  0.00    +0.292 HD
ENDBRANCH  11  27
BRANCH  14  29
ATOM     29  O   UNL     1     -12.889 -23.010 -36.023  0.00  0.00    -0.507 OA
ATOM     30  H   UNL     1     -13.472 -23.738 -35.768  0.00  0.00    +0.292 HD
ENDBRANCH  14  29
TORSDOF 4
