REMARK  Name = GEN
REMARK  4 active torsions:
REMARK  status: ('A' for Active; 'I' for Inactive)
REMARK    1  A    between atoms: C_2  and  O_3
REMARK    2  A    between atoms: C_5  and  O_6
REMARK    3  A    between atoms: C_10  and  C_14
REMARK    4  A    between atoms: C_17  and  O_18
REMARK                            x       y       z     vdW  Elec       q    Type
REMARK                         _______ _______ _______ _____ _____    ______ ____
ROOT
ATOM      1  C   UNL     1      -1.591 -30.743 -52.512  0.00  0.00    +0.023 A 
ATOM      2  H   UNL     1      -2.462 -30.523 -51.911  0.00  0.00    +0.069 HD
ATOM      3  C   UNL     1      -1.666 -30.666 -53.894  0.00  0.00    +0.145 A 
ATOM      4  O   UNL     1      -2.814 -30.312 -54.507  0.00  0.00    -0.462 OA
ATOM      5  C   UNL     1      -3.020 -30.497 -55.815  0.00  0.00    +0.104 A 
ATOM      6  H   UNL     1      -4.026 -30.423 -56.201  0.00  0.00    +0.104 HD
ATOM      7  C   UNL     1      -2.005 -30.776 -56.672  0.00  0.00    +0.064 A 
ATOM      8  C   UNL     1      -0.639 -30.890 -56.127  0.00  0.00    +0.204 A 
ATOM      9  O   UNL     1       0.341 -30.921 -56.850  0.00  0.00    -0.286 OA
ATOM     10  C   UNL     1      -0.525 -30.959 -54.662  0.00  0.00    +0.106 A 
ATOM     11  C   UNL     1       0.677 -31.315 -54.037  0.00  0.00    +0.135 A 
ATOM     12  C   UNL     1       0.730 -31.383 -52.658  0.00  0.00    +0.022 A 
ATOM     13  H   UNL     1       1.653 -31.658 -52.167  0.00  0.00    +0.069 HD
ATOM     14  C   UNL     1      -0.401 -31.100 -51.899  0.00  0.00    +0.124 A 
ENDROOT
BRANCH   7  15
ATOM     15  C   UNL     1      -2.262 -30.965 -58.121  0.00  0.00    -0.011 A 
ATOM     16  C   UNL     1      -1.273 -31.504 -58.940  0.00  0.00    -0.050 A 
ATOM     17  H   UNL     1      -0.317 -31.785 -58.522  0.00  0.00    +0.062 HD
ATOM     18  C   UNL     1      -1.516 -31.684 -60.286  0.00  0.00    -0.020 A 
ATOM     19  H   UNL     1      -0.750 -32.102 -60.922  0.00  0.00    +0.065 HD
ATOM     20  C   UNL     1      -2.742 -31.319 -60.826  0.00  0.00    +0.117 A 
ATOM     21  C   UNL     1      -3.729 -30.783 -60.013  0.00  0.00    -0.020 A 
ATOM     22  H   UNL     1      -4.683 -30.504 -60.435  0.00  0.00    +0.065 HD
ATOM     23  C   UNL     1      -3.493 -30.605 -58.665  0.00  0.00    -0.050 A 
ATOM     24  H   UNL     1      -4.262 -30.186 -58.032  0.00  0.00    +0.062 HD
BRANCH  20  25
ATOM     25  O   UNL     1      -2.978 -31.493 -62.153  0.00  0.00    -0.507 OA
ATOM     26  H   UNL     1      -3.110 -32.441 -62.291  0.00  0.00    +0.292 HD
ENDBRANCH  20  25
ENDBRANCH   7  15
BRANCH  11  27
ATOM     27  O   UNL     1       1.779 -31.590 -54.780  0.00  0.00    -0.506 OA
ATOM     28  H   UNL     1       1.572 -31.339 -55.689  0.00  0.00    +0.292 HD
ENDBRANCH  11  27
BRANCH  14  29
ATOM     29  O   UNL     1      -0.338 -31.175 -50.546  0.00  0.00    -0.507 OA
ATOM     30  H   UNL     1       0.398 -30.612 -50.268  0.00  0.00    +0.292 HD
ENDBRANCH  14  29
TORSDOF 4
