REMARK  Name = GEN
REMARK  4 active torsions:
REMARK  status: ('A' for Active; 'I' for Inactive)
REMARK    1  A    between atoms: C_2  and  O_3
REMARK    2  A    between atoms: C_5  and  O_6
REMARK    3  A    between atoms: C_10  and  C_14
REMARK    4  A    between atoms: C_17  and  O_18
REMARK                            x       y       z     vdW  Elec       q    Type
REMARK                         _______ _______ _______ _____ _____    ______ ____
ROOT
ATOM      1  C   UNL     1       2.829  -2.736 -50.845  0.00  0.00    +0.023 A 
ATOM      2  H   UNL     1       3.845  -2.733 -51.212  0.00  0.00    +0.069 HD
ATOM      3  C   UNL     1       1.770  -2.803 -51.737  0.00  0.00    +0.145 A 
ATOM      4  O   UNL     1       1.988  -2.870 -53.066  0.00  0.00    -0.462 OA
ATOM      5  C   UNL     1       1.024  -2.650 -53.967  0.00  0.00    +0.104 A 
ATOM      6  H   UNL     1       1.301  -2.480 -54.997  0.00  0.00    +0.104 HD
ATOM      7  C   UNL     1      -0.291  -2.633 -53.627  0.00  0.00    +0.064 A 
ATOM      8  C   UNL     1      -0.651  -2.850 -52.214  0.00  0.00    +0.204 A 
ATOM      9  O   UNL     1      -1.801  -3.064 -51.869  0.00  0.00    -0.286 OA
ATOM     10  C   UNL     1       0.453  -2.801 -51.243  0.00  0.00    +0.106 A 
ATOM     11  C   UNL     1       0.214  -2.744 -49.864  0.00  0.00    +0.135 A 
ATOM     12  C   UNL     1       1.285  -2.681 -48.992  0.00  0.00    +0.022 A 
ATOM     13  H   UNL     1       1.110  -2.636 -47.927  0.00  0.00    +0.069 HD
ATOM     14  C   UNL     1       2.586  -2.676 -49.482  0.00  0.00    +0.124 A 
ENDROOT
BRANCH   7  15
ATOM     15  C   UNL     1      -1.338  -2.397 -54.650  0.00  0.00    -0.011 A 
ATOM     16  C   UNL     1      -0.999  -1.843 -55.882  0.00  0.00    -0.050 A 
ATOM     17  H   UNL     1       0.029  -1.583 -56.094  0.00  0.00    +0.062 HD
ATOM     18  C   UNL     1      -1.974  -1.630 -56.833  0.00  0.00    -0.020 A 
ATOM     19  H   UNL     1      -1.711  -1.200 -57.789  0.00  0.00    +0.065 HD
ATOM     20  C   UNL     1      -3.295  -1.957 -56.561  0.00  0.00    +0.117 A 
ATOM     21  C   UNL     1      -3.637  -2.510 -55.336  0.00  0.00    -0.020 A 
ATOM     22  H   UNL     1      -4.665  -2.768 -55.128  0.00  0.00    +0.065 HD
ATOM     23  C   UNL     1      -2.665  -2.730 -54.382  0.00  0.00    -0.050 A 
ATOM     24  H   UNL     1      -2.931  -3.160 -53.427  0.00  0.00    +0.062 HD
BRANCH  20  25
ATOM     25  O   UNL     1      -4.255  -1.742 -57.499  0.00  0.00    -0.507 OA
ATOM     26  H   UNL     1      -3.916  -2.097 -58.331  0.00  0.00    +0.292 HD
ENDBRANCH  20  25
ENDBRANCH   7  15
BRANCH  11  27
ATOM     27  O   UNL     1      -1.057  -2.751 -49.389  0.00  0.00    -0.506 OA
ATOM     28  H   UNL     1      -1.642  -2.775 -50.157  0.00  0.00    +0.292 HD
ENDBRANCH  11  27
BRANCH  14  29
ATOM     29  O   UNL     1       3.629  -2.608 -48.616  0.00  0.00    -0.507 OA
ATOM     30  H   UNL     1       3.515  -3.332 -47.984  0.00  0.00    +0.292 HD
ENDBRANCH  14  29
TORSDOF 4
