REMARK  Name = GEN
REMARK  4 active torsions:
REMARK  status: ('A' for Active; 'I' for Inactive)
REMARK    1  A    between atoms: C_2  and  O_3
REMARK    2  A    between atoms: C_5  and  O_6
REMARK    3  A    between atoms: C_10  and  C_14
REMARK    4  A    between atoms: C_17  and  O_18
REMARK                            x       y       z     vdW  Elec       q    Type
REMARK                         _______ _______ _______ _____ _____    ______ ____
ROOT
ATOM      1  C   UNL     1      10.104 -13.505 -30.436  0.00  0.00    +0.023 A 
ATOM      2  H   UNL     1      10.589 -13.071 -31.299  0.00  0.00    +0.069 HD
ATOM      3  C   UNL     1      10.009 -12.782 -29.257  0.00  0.00    +0.145 A 
ATOM      4  O   UNL     1      10.509 -11.532 -29.170  0.00  0.00    -0.462 OA
ATOM      5  C   UNL     1      10.697 -10.911 -28.000  0.00  0.00    +0.104 A 
ATOM      6  H   UNL     1      11.314 -10.025 -27.973  0.00  0.00    +0.104 HD
ATOM      7  C   UNL     1      10.138 -11.361 -26.847  0.00  0.00    +0.064 A 
ATOM      8  C   UNL     1       9.312 -12.581 -26.899  0.00  0.00    +0.204 A 
ATOM      9  O   UNL     1       8.608 -12.920 -25.963  0.00  0.00    -0.286 OA
ATOM     10  C   UNL     1       9.380 -13.364 -28.142  0.00  0.00    +0.106 A 
ATOM     11  C   UNL     1       8.846 -14.656 -28.225  0.00  0.00    +0.135 A 
ATOM     12  C   UNL     1       8.950 -15.358 -29.410  0.00  0.00    +0.022 A 
ATOM     13  H   UNL     1       8.542 -16.356 -29.483  0.00  0.00    +0.069 HD
ATOM     14  C   UNL     1       9.578 -14.785 -30.510  0.00  0.00    +0.124 A 
ENDROOT
BRANCH   7  15
ATOM     15  C   UNL     1      10.356 -10.645 -25.566  0.00  0.00    -0.011 A 
ATOM     16  C   UNL     1      10.616 -11.362 -24.401  0.00  0.00    -0.050 A 
ATOM     17  H   UNL     1      10.658 -12.442 -24.429  0.00  0.00    +0.062 HD
ATOM     18  C   UNL     1      10.823 -10.694 -23.213  0.00  0.00    -0.020 A 
ATOM     19  H   UNL     1      11.024 -11.250 -22.309  0.00  0.00    +0.065 HD
ATOM     20  C   UNL     1      10.764  -9.308 -23.175  0.00  0.00    +0.117 A 
ATOM     21  C   UNL     1      10.507  -8.590 -24.333  0.00  0.00    -0.020 A 
ATOM     22  H   UNL     1      10.465  -7.511 -24.302  0.00  0.00    +0.065 HD
ATOM     23  C   UNL     1      10.303  -9.253 -25.526  0.00  0.00    -0.050 A 
ATOM     24  H   UNL     1      10.102  -8.694 -26.428  0.00  0.00    +0.062 HD
BRANCH  20  25
ATOM     25  O   UNL     1      10.964  -8.652 -22.002  0.00  0.00    -0.507 OA
ATOM     26  H   UNL     1      10.103  -8.318 -21.717  0.00  0.00    +0.292 HD
ENDBRANCH  20  25
ENDBRANCH   7  15
BRANCH  11  27
ATOM     27  O   UNL     1       8.232 -15.212 -27.150  0.00  0.00    -0.506 OA
ATOM     28  H   UNL     1       7.571 -14.577 -26.846  0.00  0.00    +0.292 HD
ENDBRANCH  11  27
BRANCH  14  29
ATOM     29  O   UNL     1       9.679 -15.487 -31.668  0.00  0.00    -0.507 OA
ATOM     30  H   UNL     1       9.543 -16.417 -31.443  0.00  0.00    +0.292 HD
ENDBRANCH  14  29
TORSDOF 4
