REMARK  Name = GEN
REMARK  4 active torsions:
REMARK  status: ('A' for Active; 'I' for Inactive)
REMARK    1  A    between atoms: C_2  and  O_3
REMARK    2  A    between atoms: C_5  and  O_6
REMARK    3  A    between atoms: C_10  and  C_14
REMARK    4  A    between atoms: C_17  and  O_18
REMARK                            x       y       z     vdW  Elec       q    Type
REMARK                         _______ _______ _______ _____ _____    ______ ____
ROOT
ATOM      1  C   UNL     1       1.133  -1.635 -27.882  0.00  0.00    +0.023 A 
ATOM      2  H   UNL     1       0.255  -1.005 -27.871  0.00  0.00    +0.069 HD
ATOM      3  C   UNL     1       1.729  -2.013 -26.688  0.00  0.00    +0.145 A 
ATOM      4  O   UNL     1       1.223  -1.611 -25.504  0.00  0.00    -0.462 OA
ATOM      5  C   UNL     1       1.907  -1.704 -24.359  0.00  0.00    +0.104 A 
ATOM      6  H   UNL     1       1.560  -1.155 -23.496  0.00  0.00    +0.104 HD
ATOM      7  C   UNL     1       3.026  -2.467 -24.247  0.00  0.00    +0.064 A 
ATOM      8  C   UNL     1       3.497  -3.197 -25.438  0.00  0.00    +0.204 A 
ATOM      9  O   UNL     1       4.354  -4.062 -25.365  0.00  0.00    -0.286 OA
ATOM     10  C   UNL     1       2.874  -2.829 -26.719  0.00  0.00    +0.106 A 
ATOM     11  C   UNL     1       3.401  -3.264 -27.942  0.00  0.00    +0.135 A 
ATOM     12  C   UNL     1       2.790  -2.877 -29.120  0.00  0.00    +0.022 A 
ATOM     13  H   UNL     1       3.190  -3.207 -30.068  0.00  0.00    +0.069 HD
ATOM     14  C   UNL     1       1.662  -2.065 -29.088  0.00  0.00    +0.124 A 
ENDROOT
BRANCH   7  15
ATOM     15  C   UNL     1       3.758  -2.560 -22.961  0.00  0.00    -0.011 A 
ATOM     16  C   UNL     1       4.442  -3.727 -22.630  0.00  0.00    -0.050 A 
ATOM     17  H   UNL     1       4.438  -4.567 -23.310  0.00  0.00    +0.062 HD
ATOM     18  C   UNL     1       5.126  -3.810 -21.436  0.00  0.00    -0.020 A 
ATOM     19  H   UNL     1       5.656  -4.715 -21.179  0.00  0.00    +0.065 HD
ATOM     20  C   UNL     1       5.126  -2.734 -20.559  0.00  0.00    +0.117 A 
ATOM     21  C   UNL     1       4.448  -1.569 -20.885  0.00  0.00    -0.020 A 
ATOM     22  H   UNL     1       4.454  -0.732 -20.203  0.00  0.00    +0.065 HD
ATOM     23  C   UNL     1       3.766  -1.479 -22.081  0.00  0.00    -0.050 A 
ATOM     24  H   UNL     1       3.236  -0.573 -22.335  0.00  0.00    +0.062 HD
BRANCH  20  25
ATOM     25  O   UNL     1       5.798  -2.819 -19.380  0.00  0.00    -0.507 OA
ATOM     26  H   UNL     1       5.132  -2.878 -18.683  0.00  0.00    +0.292 HD
ENDBRANCH  20  25
ENDBRANCH   7  15
BRANCH  11  27
ATOM     27  O   UNL     1       4.501  -4.058 -27.969  0.00  0.00    -0.506 OA
ATOM     28  H   UNL     1       4.494  -4.573 -27.152  0.00  0.00    +0.292 HD
ENDBRANCH  11  27
BRANCH  14  29
ATOM     29  O   UNL     1       1.073  -1.687 -30.251  0.00  0.00    -0.507 OA
ATOM     30  H   UNL     1       0.160  -2.005 -30.219  0.00  0.00    +0.292 HD
ENDBRANCH  14  29
TORSDOF 4
