REMARK  Name = GEN
REMARK  4 active torsions:
REMARK  status: ('A' for Active; 'I' for Inactive)
REMARK    1  A    between atoms: C_2  and  O_3
REMARK    2  A    between atoms: C_5  and  O_6
REMARK    3  A    between atoms: C_10  and  C_14
REMARK    4  A    between atoms: C_17  and  O_18
REMARK                            x       y       z     vdW  Elec       q    Type
REMARK                         _______ _______ _______ _____ _____    ______ ____
ROOT
ATOM      1  C   UNL     1       6.879 -25.130 -45.718  0.00  0.00    +0.023 A 
ATOM      2  H   UNL     1       7.582 -24.321 -45.576  0.00  0.00    +0.069 HD
ATOM      3  C   UNL     1       7.272 -26.439 -45.482  0.00  0.00    +0.145 A 
ATOM      4  O   UNL     1       8.524 -26.722 -45.067  0.00  0.00    -0.462 OA
ATOM      5  C   UNL     1       9.032 -27.958 -45.100  0.00  0.00    +0.104 A 
ATOM      6  H   UNL     1      10.098 -28.087 -44.988  0.00  0.00    +0.104 HD
ATOM      7  C   UNL     1       8.250 -29.055 -45.271  0.00  0.00    +0.064 A 
ATOM      8  C   UNL     1       6.798 -28.860 -45.440  0.00  0.00    +0.204 A 
ATOM      9  O   UNL     1       6.013 -29.791 -45.381  0.00  0.00    -0.286 OA
ATOM     10  C   UNL     1       6.347 -27.480 -45.678  0.00  0.00    +0.106 A 
ATOM     11  C   UNL     1       5.041 -27.198 -46.097  0.00  0.00    +0.135 A 
ATOM     12  C   UNL     1       4.670 -25.886 -46.324  0.00  0.00    +0.022 A 
ATOM     13  H   UNL     1       3.664 -25.659 -46.648  0.00  0.00    +0.069 HD
ATOM     14  C   UNL     1       5.587 -24.857 -46.137  0.00  0.00    +0.124 A 
ENDROOT
BRANCH   7  15
ATOM     15  C   UNL     1       8.841 -30.415 -45.293  0.00  0.00    -0.011 A 
ATOM     16  C   UNL     1      10.099 -30.638 -44.738  0.00  0.00    -0.050 A 
ATOM     17  H   UNL     1      10.647 -29.820 -44.293  0.00  0.00    +0.062 HD
ATOM     18  C   UNL     1      10.644 -31.905 -44.754  0.00  0.00    -0.020 A 
ATOM     19  H   UNL     1      11.620 -32.078 -44.325  0.00  0.00    +0.065 HD
ATOM     20  C   UNL     1       9.944 -32.955 -45.331  0.00  0.00    +0.117 A 
ATOM     21  C   UNL     1       8.690 -32.737 -45.883  0.00  0.00    -0.020 A 
ATOM     22  H   UNL     1       8.146 -33.558 -46.327  0.00  0.00    +0.065 HD
ATOM     23  C   UNL     1       8.138 -31.474 -45.865  0.00  0.00    -0.050 A 
ATOM     24  H   UNL     1       7.162 -31.303 -46.296  0.00  0.00    +0.062 HD
BRANCH  20  25
ATOM     25  O   UNL     1      10.485 -34.202 -45.350  0.00  0.00    -0.507 OA
ATOM     26  H   UNL     1      11.044 -34.252 -46.136  0.00  0.00    +0.292 HD
ENDBRANCH  20  25
ENDBRANCH   7  15
BRANCH  11  27
ATOM     27  O   UNL     1       4.148 -28.204 -46.277  0.00  0.00    -0.506 OA
ATOM     28  H   UNL     1       4.208 -28.773 -45.498  0.00  0.00    +0.292 HD
ENDBRANCH  11  27
BRANCH  14  29
ATOM     29  O   UNL     1       5.212 -23.574 -46.368  0.00  0.00    -0.507 OA
ATOM     30  H   UNL     1       5.321 -23.096 -45.535  0.00  0.00    +0.292 HD
ENDBRANCH  14  29
TORSDOF 4
