REMARK  Name = GEN
REMARK  4 active torsions:
REMARK  status: ('A' for Active; 'I' for Inactive)
REMARK    1  A    between atoms: C_2  and  O_3
REMARK    2  A    between atoms: C_5  and  O_6
REMARK    3  A    between atoms: C_10  and  C_14
REMARK    4  A    between atoms: C_17  and  O_18
REMARK                            x       y       z     vdW  Elec       q    Type
REMARK                         _______ _______ _______ _____ _____    ______ ____
ROOT
ATOM      1  C   UNL     1     -12.291 -27.720 -54.334  0.00  0.00    +0.023 A 
ATOM      2  H   UNL     1     -12.991 -27.248 -53.660  0.00  0.00    +0.069 HD
ATOM      3  C   UNL     1     -12.280 -27.374 -55.677  0.00  0.00    +0.145 A 
ATOM      4  O   UNL     1     -13.132 -26.445 -56.159  0.00  0.00    -0.462 OA
ATOM      5  C   UNL     1     -13.358 -26.283 -57.467  0.00  0.00    +0.104 A 
ATOM      6  H   UNL     1     -14.213 -25.704 -57.781  0.00  0.00    +0.104 HD
ATOM      7  C   UNL     1     -12.547 -26.826 -58.411  0.00  0.00    +0.064 A 
ATOM      8  C   UNL     1     -11.393 -27.629 -57.965  0.00  0.00    +0.204 A 
ATOM      9  O   UNL     1     -10.507 -27.962 -58.733  0.00  0.00    -0.286 OA
ATOM     10  C   UNL     1     -11.366 -28.001 -56.542  0.00  0.00    +0.106 A 
ATOM     11  C   UNL     1     -10.469 -28.957 -56.051  0.00  0.00    +0.135 A 
ATOM     12  C   UNL     1     -10.495 -29.286 -54.709  0.00  0.00    +0.022 A 
ATOM     13  H   UNL     1      -9.807 -30.024 -54.322  0.00  0.00    +0.069 HD
ATOM     14  C   UNL     1     -11.403 -28.671 -53.855  0.00  0.00    +0.124 A 
ENDROOT
BRANCH   7  15
ATOM     15  C   UNL     1     -12.816 -26.621 -59.855  0.00  0.00    -0.011 A 
ATOM     16  C   UNL     1     -11.758 -26.545 -60.758  0.00  0.00    -0.050 A 
ATOM     17  H   UNL     1     -10.740 -26.634 -60.408  0.00  0.00    +0.062 HD
ATOM     18  C   UNL     1     -12.012 -26.359 -62.101  0.00  0.00    -0.020 A 
ATOM     19  H   UNL     1     -11.192 -26.300 -62.802  0.00  0.00    +0.065 HD
ATOM     20  C   UNL     1     -13.319 -26.239 -62.552  0.00  0.00    +0.117 A 
ATOM     21  C   UNL     1     -14.374 -26.315 -61.656  0.00  0.00    -0.020 A 
ATOM     22  H   UNL     1     -15.391 -26.226 -62.010  0.00  0.00    +0.065 HD
ATOM     23  C   UNL     1     -14.128 -26.506 -60.312  0.00  0.00    -0.050 A 
ATOM     24  H   UNL     1     -14.950 -26.565 -59.614  0.00  0.00    +0.062 HD
BRANCH  20  25
ATOM     25  O   UNL     1     -13.566 -26.052 -63.875  0.00  0.00    -0.507 OA
ATOM     26  H   UNL     1     -13.773 -26.920 -64.246  0.00  0.00    +0.292 HD
ENDBRANCH  20  25
ENDBRANCH   7  15
BRANCH  11  27
ATOM     27  O   UNL     1      -9.582 -29.555 -56.886  0.00  0.00    -0.506 OA
ATOM     28  H   UNL     1      -9.548 -29.018 -57.689  0.00  0.00    +0.292 HD
ENDBRANCH  11  27
BRANCH  14  29
ATOM     29  O   UNL     1     -11.423 -29.005 -52.541  0.00  0.00    -0.507 OA
ATOM     30  H   UNL     1     -10.502 -29.115 -52.267  0.00  0.00    +0.292 HD
ENDBRANCH  14  29
TORSDOF 4
