REMARK  Name = GEN
REMARK  4 active torsions:
REMARK  status: ('A' for Active; 'I' for Inactive)
REMARK    1  A    between atoms: C_2  and  O_3
REMARK    2  A    between atoms: C_5  and  O_6
REMARK    3  A    between atoms: C_10  and  C_14
REMARK    4  A    between atoms: C_17  and  O_18
REMARK                            x       y       z     vdW  Elec       q    Type
REMARK                         _______ _______ _______ _____ _____    ______ ____
ROOT
ATOM      1  C   UNL     1     -13.989 -21.018 -34.696  0.00  0.00    +0.023 A 
ATOM      2  H   UNL     1     -13.920 -22.067 -34.446  0.00  0.00    +0.069 HD
ATOM      3  C   UNL     1     -14.004 -20.065 -33.689  0.00  0.00    +0.145 A 
ATOM      4  O   UNL     1     -13.926 -20.428 -32.391  0.00  0.00    -0.462 OA
ATOM      5  C   UNL     1     -14.219 -19.592 -31.390  0.00  0.00    +0.104 A 
ATOM      6  H   UNL     1     -14.374 -19.996 -30.400  0.00  0.00    +0.104 HD
ATOM      7  C   UNL     1     -14.331 -18.252 -31.579  0.00  0.00    +0.064 A 
ATOM      8  C   UNL     1     -14.134 -17.718 -32.939  0.00  0.00    +0.204 A 
ATOM      9  O   UNL     1     -14.002 -16.524 -33.148  0.00  0.00    -0.286 OA
ATOM     10  C   UNL     1     -14.099 -18.705 -34.030  0.00  0.00    +0.106 A 
ATOM     11  C   UNL     1     -14.167 -18.315 -35.373  0.00  0.00    +0.135 A 
ATOM     12  C   UNL     1     -14.148 -19.280 -36.362  0.00  0.00    +0.022 A 
ATOM     13  H   UNL     1     -14.202 -18.989 -37.401  0.00  0.00    +0.069 HD
ATOM     14  C   UNL     1     -14.061 -20.626 -36.023  0.00  0.00    +0.124 A 
ENDROOT
BRANCH   7  15
ATOM     15  C   UNL     1     -14.646 -17.347 -30.447  0.00  0.00    -0.011 A 
ATOM     16  C   UNL     1     -14.338 -17.728 -29.143  0.00  0.00    -0.050 A 
ATOM     17  H   UNL     1     -13.870 -18.683 -28.954  0.00  0.00    +0.062 HD
ATOM     18  C   UNL     1     -14.628 -16.882 -28.092  0.00  0.00    -0.020 A 
ATOM     19  H   UNL     1     -14.389 -17.177 -27.081  0.00  0.00    +0.065 HD
ATOM     20  C   UNL     1     -15.235 -15.658 -28.332  0.00  0.00    +0.117 A 
ATOM     21  C   UNL     1     -15.542 -15.275 -29.629  0.00  0.00    -0.020 A 
ATOM     22  H   UNL     1     -16.010 -14.319 -29.814  0.00  0.00    +0.065 HD
ATOM     23  C   UNL     1     -15.250 -16.114 -30.685  0.00  0.00    -0.050 A 
ATOM     24  H   UNL     1     -15.490 -15.816 -31.695  0.00  0.00    +0.062 HD
BRANCH  20  25
ATOM     25  O   UNL     1     -15.523 -14.828 -27.295  0.00  0.00    -0.507 OA
ATOM     26  H   UNL     1     -15.553 -13.932 -27.654  0.00  0.00    +0.292 HD
ENDBRANCH  20  25
ENDBRANCH   7  15
BRANCH  11  27
ATOM     27  O   UNL     1     -14.250 -17.001 -35.700  0.00  0.00    -0.506 OA
ATOM     28  H   UNL     1     -14.188 -16.502 -34.875  0.00  0.00    +0.292 HD
ENDBRANCH  11  27
BRANCH  14  29
ATOM     29  O   UNL     1     -14.049 -21.566 -37.002  0.00  0.00    -0.507 OA
ATOM     30  H   UNL     1     -14.132 -21.094 -37.843  0.00  0.00    +0.292 HD
ENDBRANCH  14  29
TORSDOF 4
