REMARK  Name = GEN
REMARK  4 active torsions:
REMARK  status: ('A' for Active; 'I' for Inactive)
REMARK    1  A    between atoms: C_2  and  O_3
REMARK    2  A    between atoms: C_5  and  O_6
REMARK    3  A    between atoms: C_10  and  C_14
REMARK    4  A    between atoms: C_17  and  O_18
REMARK                            x       y       z     vdW  Elec       q    Type
REMARK                         _______ _______ _______ _____ _____    ______ ____
ROOT
ATOM      1  C   UNL     1       1.855  -2.541 -50.603  0.00  0.00    +0.023 A 
ATOM      2  H   UNL     1       2.916  -2.481 -50.799  0.00  0.00    +0.069 HD
ATOM      3  C   UNL     1       0.960  -2.639 -51.657  0.00  0.00    +0.145 A 
ATOM      4  O   UNL     1       1.395  -2.669 -52.934  0.00  0.00    -0.462 OA
ATOM      5  C   UNL     1       0.582  -2.476 -53.978  0.00  0.00    +0.104 A 
ATOM      6  H   UNL     1       1.014  -2.271 -54.946  0.00  0.00    +0.104 HD
ATOM      7  C   UNL     1      -0.770  -2.528 -53.858  0.00  0.00    +0.064 A 
ATOM      8  C   UNL     1      -1.345  -2.792 -52.526  0.00  0.00    +0.204 A 
ATOM      9  O   UNL     1      -2.523  -3.067 -52.377  0.00  0.00    -0.286 OA
ATOM     10  C   UNL     1      -0.418  -2.710 -51.386  0.00  0.00    +0.106 A 
ATOM     11  C   UNL     1      -0.881  -2.693 -50.065  0.00  0.00    +0.135 A 
ATOM     12  C   UNL     1       0.028  -2.597 -49.028  0.00  0.00    +0.022 A 
ATOM     13  H   UNL     1      -0.320  -2.582 -48.005  0.00  0.00    +0.069 HD
ATOM     14  C   UNL     1       1.390  -2.520 -49.298  0.00  0.00    +0.124 A 
ENDROOT
BRANCH   7  15
ATOM     15  C   UNL     1      -1.647  -2.321 -55.036  0.00  0.00    -0.011 A 
ATOM     16  C   UNL     1      -3.028  -2.241 -54.872  0.00  0.00    -0.050 A 
ATOM     17  H   UNL     1      -3.462  -2.330 -53.886  0.00  0.00    +0.062 HD
ATOM     18  C   UNL     1      -3.841  -2.043 -55.968  0.00  0.00    -0.020 A 
ATOM     19  H   UNL     1      -4.912  -1.981 -55.842  0.00  0.00    +0.065 HD
ATOM     20  C   UNL     1      -3.286  -1.934 -57.235  0.00  0.00    +0.117 A 
ATOM     21  C   UNL     1      -1.911  -2.012 -57.402  0.00  0.00    -0.020 A 
ATOM     22  H   UNL     1      -1.481  -1.922 -58.389  0.00  0.00    +0.065 HD
ATOM     23  C   UNL     1      -1.092  -2.205 -56.309  0.00  0.00    -0.050 A 
ATOM     24  H   UNL     1      -0.022  -2.267 -56.439  0.00  0.00    +0.062 HD
BRANCH  20  25
ATOM     25  O   UNL     1      -4.089  -1.743 -58.315  0.00  0.00    -0.507 OA
ATOM     26  H   UNL     1      -4.315  -2.620 -58.653  0.00  0.00    +0.292 HD
ENDBRANCH  20  25
ENDBRANCH   7  15
BRANCH  11  27
ATOM     27  O   UNL     1      -2.211  -2.770 -49.805  0.00  0.00    -0.506 OA
ATOM     28  H   UNL     1      -2.615  -3.235 -50.550  0.00  0.00    +0.292 HD
ENDBRANCH  11  27
BRANCH  14  29
ATOM     29  O   UNL     1       2.273  -2.421 -48.272  0.00  0.00    -0.507 OA
ATOM     30  H   UNL     1       2.665  -3.297 -48.155  0.00  0.00    +0.292 HD
ENDBRANCH  14  29
TORSDOF 4
