REMARK  Name = GEN
REMARK  4 active torsions:
REMARK  status: ('A' for Active; 'I' for Inactive)
REMARK    1  A    between atoms: C_2  and  O_3
REMARK    2  A    between atoms: C_5  and  O_6
REMARK    3  A    between atoms: C_10  and  C_14
REMARK    4  A    between atoms: C_17  and  O_18
REMARK                            x       y       z     vdW  Elec       q    Type
REMARK                         _______ _______ _______ _____ _____    ______ ____
ROOT
ATOM      1  C   UNL     1       8.674 -11.017 -25.503  0.00  0.00    +0.023 A 
ATOM      2  H   UNL     1       7.980 -11.803 -25.242  0.00  0.00    +0.069 HD
ATOM      3  C   UNL     1       9.545 -10.516 -24.548  0.00  0.00    +0.145 A 
ATOM      4  O   UNL     1       9.547 -11.003 -23.290  0.00  0.00    -0.462 OA
ATOM      5  C   UNL     1      10.150 -10.375 -22.274  0.00  0.00    +0.104 A 
ATOM      6  H   UNL     1       9.918 -10.675 -21.263  0.00  0.00    +0.104 HD
ATOM      7  C   UNL     1      11.044  -9.372 -22.476  0.00  0.00    +0.064 A 
ATOM      8  C   UNL     1      11.336  -8.964 -23.862  0.00  0.00    +0.204 A 
ATOM      9  O   UNL     1      12.274  -8.233 -24.132  0.00  0.00    -0.286 OA
ATOM     10  C   UNL     1      10.439  -9.490 -24.902  0.00  0.00    +0.106 A 
ATOM     11  C   UNL     1      10.455  -8.986 -26.208  0.00  0.00    +0.135 A 
ATOM     12  C   UNL     1       9.580  -9.500 -27.146  0.00  0.00    +0.022 A 
ATOM     13  H   UNL     1       9.586  -9.117 -28.156  0.00  0.00    +0.069 HD
ATOM     14  C   UNL     1       8.693 -10.511 -26.793  0.00  0.00    +0.124 A 
ENDROOT
BRANCH   7  15
ATOM     15  C   UNL     1      11.706  -8.702 -21.331  0.00  0.00    -0.011 A 
ATOM     16  C   UNL     1      11.054  -8.609 -20.104  0.00  0.00    -0.050 A 
ATOM     17  H   UNL     1      10.063  -9.025 -19.985  0.00  0.00    +0.062 HD
ATOM     18  C   UNL     1      11.674  -7.990 -19.039  0.00  0.00    -0.020 A 
ATOM     19  H   UNL     1      11.168  -7.918 -18.087  0.00  0.00    +0.065 HD
ATOM     20  C   UNL     1      12.944  -7.451 -19.192  0.00  0.00    +0.117 A 
ATOM     21  C   UNL     1      13.597  -7.542 -20.411  0.00  0.00    -0.020 A 
ATOM     22  H   UNL     1      14.587  -7.126 -20.526  0.00  0.00    +0.065 HD
ATOM     23  C   UNL     1      12.984  -8.165 -21.479  0.00  0.00    -0.050 A 
ATOM     24  H   UNL     1      13.492  -8.235 -22.429  0.00  0.00    +0.062 HD
BRANCH  20  25
ATOM     25  O   UNL     1      13.551  -6.837 -18.142  0.00  0.00    -0.507 OA
ATOM     26  H   UNL     1      14.396  -6.499 -18.467  0.00  0.00    +0.292 HD
ENDBRANCH  20  25
ENDBRANCH   7  15
BRANCH  11  27
ATOM     27  O   UNL     1      11.324  -8.001 -26.550  0.00  0.00    -0.506 OA
ATOM     28  H   UNL     1      12.079  -8.073 -25.951  0.00  0.00    +0.292 HD
ENDBRANCH  11  27
BRANCH  14  29
ATOM     29  O   UNL     1       7.835 -11.005 -27.721  0.00  0.00    -0.507 OA
ATOM     30  H   UNL     1       8.345 -11.136 -28.532  0.00  0.00    +0.292 HD
ENDBRANCH  14  29
TORSDOF 4
