REMARK  Name = GEN
REMARK  4 active torsions:
REMARK  status: ('A' for Active; 'I' for Inactive)
REMARK    1  A    between atoms: C_2  and  O_3
REMARK    2  A    between atoms: C_5  and  O_6
REMARK    3  A    between atoms: C_10  and  C_14
REMARK    4  A    between atoms: C_17  and  O_18
REMARK                            x       y       z     vdW  Elec       q    Type
REMARK                         _______ _______ _______ _____ _____    ______ ____
ROOT
ATOM      1  C   UNL     1      -6.149 -10.281 -59.561  0.00  0.00    +0.023 A 
ATOM      2  H   UNL     1      -6.056  -9.223 -59.761  0.00  0.00    +0.069 HD
ATOM      3  C   UNL     1      -5.085 -11.131 -59.819  0.00  0.00    +0.145 A 
ATOM      4  O   UNL     1      -3.923 -10.656 -60.314  0.00  0.00    -0.462 OA
ATOM      5  C   UNL     1      -2.985 -11.449 -60.841  0.00  0.00    +0.104 A 
ATOM      6  H   UNL     1      -2.197 -11.006 -61.432  0.00  0.00    +0.104 HD
ATOM      7  C   UNL     1      -2.994 -12.795 -60.658  0.00  0.00    +0.064 A 
ATOM      8  C   UNL     1      -4.085 -13.387 -59.863  0.00  0.00    +0.204 A 
ATOM      9  O   UNL     1      -4.045 -14.542 -59.475  0.00  0.00    -0.286 OA
ATOM     10  C   UNL     1      -5.224 -12.506 -59.559  0.00  0.00    +0.106 A 
ATOM     11  C   UNL     1      -6.420 -13.010 -59.034  0.00  0.00    +0.135 A 
ATOM     12  C   UNL     1      -7.468 -12.145 -58.781  0.00  0.00    +0.022 A 
ATOM     13  H   UNL     1      -8.395 -12.524 -58.377  0.00  0.00    +0.069 HD
ATOM     14  C   UNL     1      -7.332 -10.786 -59.045  0.00  0.00    +0.124 A 
ENDROOT
BRANCH   7  15
ATOM     15  C   UNL     1      -1.933 -13.650 -61.246  0.00  0.00    -0.011 A 
ATOM     16  C   UNL     1      -2.201 -14.982 -61.553  0.00  0.00    -0.050 A 
ATOM     17  H   UNL     1      -3.181 -15.395 -61.361  0.00  0.00    +0.062 HD
ATOM     18  C   UNL     1      -1.215 -15.773 -62.105  0.00  0.00    -0.020 A 
ATOM     19  H   UNL     1      -1.422 -16.806 -62.342  0.00  0.00    +0.065 HD
ATOM     20  C   UNL     1       0.046 -15.245 -62.345  0.00  0.00    +0.117 A 
ATOM     21  C   UNL     1       0.316 -13.919 -62.042  0.00  0.00    -0.020 A 
ATOM     22  H   UNL     1       1.297 -13.510 -62.235  0.00  0.00    +0.065 HD
ATOM     23  C   UNL     1      -0.668 -13.122 -61.495  0.00  0.00    -0.050 A 
ATOM     24  H   UNL     1      -0.458 -12.089 -61.258  0.00  0.00    +0.062 HD
BRANCH  20  25
ATOM     25  O   UNL     1       1.018 -16.028 -62.885  0.00  0.00    -0.507 OA
ATOM     26  H   UNL     1       1.494 -15.481 -63.523  0.00  0.00    +0.292 HD
ENDBRANCH  20  25
ENDBRANCH   7  15
BRANCH  11  27
ATOM     27  O   UNL     1      -6.549 -14.336 -58.775  0.00  0.00    -0.506 OA
ATOM     28  H   UNL     1      -5.793 -14.589 -58.230  0.00  0.00    +0.292 HD
ENDBRANCH  11  27
BRANCH  14  29
ATOM     29  O   UNL     1      -8.369  -9.947 -58.798  0.00  0.00    -0.507 OA
ATOM     30  H   UNL     1      -8.575  -9.503 -59.632  0.00  0.00    +0.292 HD
ENDBRANCH  14  29
TORSDOF 4
