REMARK  Name = GEN
REMARK  4 active torsions:
REMARK  status: ('A' for Active; 'I' for Inactive)
REMARK    1  A    between atoms: C_2  and  O_3
REMARK    2  A    between atoms: C_5  and  O_6
REMARK    3  A    between atoms: C_10  and  C_14
REMARK    4  A    between atoms: C_17  and  O_18
REMARK                            x       y       z     vdW  Elec       q    Type
REMARK                         _______ _______ _______ _____ _____    ______ ____
ROOT
ATOM      1  C   UNL     1      11.011 -11.805 -28.747  0.00  0.00    +0.023 A 
ATOM      2  H   UNL     1      11.659 -11.644 -29.597  0.00  0.00    +0.069 HD
ATOM      3  C   UNL     1      11.149 -11.021 -27.612  0.00  0.00    +0.145 A 
ATOM      4  O   UNL     1      12.080 -10.046 -27.553  0.00  0.00    -0.462 OA
ATOM      5  C   UNL     1      12.443  -9.463 -26.405  0.00  0.00    +0.104 A 
ATOM      6  H   UNL     1      13.347  -8.874 -26.381  0.00  0.00    +0.104 HD
ATOM      7  C   UNL     1      11.709  -9.591 -25.269  0.00  0.00    +0.064 A 
ATOM      8  C   UNL     1      10.486 -10.413 -25.314  0.00  0.00    +0.204 A 
ATOM      9  O   UNL     1       9.669 -10.400 -24.409  0.00  0.00    -0.286 OA
ATOM     10  C   UNL     1      10.302 -11.247 -26.512  0.00  0.00    +0.106 A 
ATOM     11  C   UNL     1       9.324 -12.247 -26.566  0.00  0.00    +0.135 A 
ATOM     12  C   UNL     1       9.202 -13.016 -27.708  0.00  0.00    +0.022 A 
ATOM     13  H   UNL     1       8.450 -13.790 -27.759  0.00  0.00    +0.069 HD
ATOM     14  C   UNL     1      10.044 -12.796 -28.793  0.00  0.00    +0.124 A 
ENDROOT
BRANCH   7  15
ATOM     15  C   UNL     1      12.130  -8.924 -24.013  0.00  0.00    -0.011 A 
ATOM     16  C   UNL     1      13.468  -8.595 -23.812  0.00  0.00    -0.050 A 
ATOM     17  H   UNL     1      14.202  -8.826 -24.570  0.00  0.00    +0.062 HD
ATOM     18  C   UNL     1      13.855  -7.969 -22.645  0.00  0.00    -0.020 A 
ATOM     19  H   UNL     1      14.893  -7.714 -22.489  0.00  0.00    +0.065 HD
ATOM     20  C   UNL     1      12.915  -7.678 -21.667  0.00  0.00    +0.117 A 
ATOM     21  C   UNL     1      11.581  -8.003 -21.864  0.00  0.00    -0.020 A 
ATOM     22  H   UNL     1      10.851  -7.770 -21.103  0.00  0.00    +0.065 HD
ATOM     23  C   UNL     1      11.187  -8.624 -23.031  0.00  0.00    -0.050 A 
ATOM     24  H   UNL     1      10.148  -8.879 -23.184  0.00  0.00    +0.062 HD
BRANCH  20  25
ATOM     25  O   UNL     1      13.300  -7.065 -20.516  0.00  0.00    -0.507 OA
ATOM     26  H   UNL     1      14.246  -6.886 -20.599  0.00  0.00    +0.292 HD
ENDBRANCH  20  25
ENDBRANCH   7  15
BRANCH  11  27
ATOM     27  O   UNL     1       8.502 -12.458 -25.507  0.00  0.00    -0.506 OA
ATOM     28  H   UNL     1       8.979 -12.164 -24.720  0.00  0.00    +0.292 HD
ENDBRANCH  11  27
BRANCH  14  29
ATOM     29  O   UNL     1       9.918 -13.561 -29.906  0.00  0.00    -0.507 OA
ATOM     30  H   UNL     1      10.183 -14.458 -29.661  0.00  0.00    +0.292 HD
ENDBRANCH  14  29
TORSDOF 4
