REMARK  Name = GEN
REMARK  4 active torsions:
REMARK  status: ('A' for Active; 'I' for Inactive)
REMARK    1  A    between atoms: C_2  and  O_3
REMARK    2  A    between atoms: C_5  and  O_6
REMARK    3  A    between atoms: C_10  and  C_14
REMARK    4  A    between atoms: C_17  and  O_18
REMARK                            x       y       z     vdW  Elec       q    Type
REMARK                         _______ _______ _______ _____ _____    ______ ____
ROOT
ATOM      1  C   UNL     1       1.034  -1.831 -28.038  0.00  0.00    +0.023 A 
ATOM      2  H   UNL     1       0.012  -1.482 -28.012  0.00  0.00    +0.069 HD
ATOM      3  C   UNL     1       1.687  -2.152 -26.858  0.00  0.00    +0.145 A 
ATOM      4  O   UNL     1       1.061  -2.044 -25.668  0.00  0.00    -0.462 OA
ATOM      5  C   UNL     1       1.717  -2.063 -24.503  0.00  0.00    +0.104 A 
ATOM      6  H   UNL     1       1.206  -1.734 -23.610  0.00  0.00    +0.104 HD
ATOM      7  C   UNL     1       3.005  -2.482 -24.409  0.00  0.00    +0.064 A 
ATOM      8  C   UNL     1       3.694  -2.912 -25.639  0.00  0.00    +0.204 A 
ATOM      9  O   UNL     1       4.762  -3.499 -25.607  0.00  0.00    -0.286 OA
ATOM     10  C   UNL     1       3.020  -2.599 -26.909  0.00  0.00    +0.106 A 
ATOM     11  C   UNL     1       3.677  -2.727 -28.139  0.00  0.00    +0.135 A 
ATOM     12  C   UNL     1       3.007  -2.404 -29.303  0.00  0.00    +0.022 A 
ATOM     13  H   UNL     1       3.506  -2.499 -30.257  0.00  0.00    +0.069 HD
ATOM     14  C   UNL     1       1.691  -1.956 -29.252  0.00  0.00    +0.124 A 
ENDROOT
BRANCH   7  15
ATOM     15  C   UNL     1       3.704  -2.504 -23.100  0.00  0.00    -0.011 A 
ATOM     16  C   UNL     1       4.554  -3.560 -22.781  0.00  0.00    -0.050 A 
ATOM     17  H   UNL     1       4.704  -4.366 -23.485  0.00  0.00    +0.062 HD
ATOM     18  C   UNL     1       5.207  -3.575 -21.566  0.00  0.00    -0.020 A 
ATOM     19  H   UNL     1       5.866  -4.394 -21.317  0.00  0.00    +0.065 HD
ATOM     20  C   UNL     1       5.011  -2.543 -20.658  0.00  0.00    +0.117 A 
ATOM     21  C   UNL     1       4.167  -1.489 -20.974  0.00  0.00    -0.020 A 
ATOM     22  H   UNL     1       4.020  -0.685 -20.268  0.00  0.00    +0.065 HD
ATOM     23  C   UNL     1       3.515  -1.466 -22.189  0.00  0.00    -0.050 A 
ATOM     24  H   UNL     1       2.856  -0.646 -22.435  0.00  0.00    +0.062 HD
BRANCH  20  25
ATOM     25  O   UNL     1       5.652  -2.562 -19.460  0.00  0.00    -0.507 OA
ATOM     26  H   UNL     1       6.368  -1.915 -19.516  0.00  0.00    +0.292 HD
ENDBRANCH  20  25
ENDBRANCH   7  15
BRANCH  11  27
ATOM     27  O   UNL     1       4.960  -3.167 -28.186  0.00  0.00    -0.506 OA
ATOM     28  H   UNL     1       5.441  -2.698 -27.492  0.00  0.00    +0.292 HD
ENDBRANCH  11  27
BRANCH  14  29
ATOM     29  O   UNL     1       1.045  -1.637 -30.401  0.00  0.00    -0.507 OA
ATOM     30  H   UNL     1       0.219  -2.140 -30.407  0.00  0.00    +0.292 HD
ENDBRANCH  14  29
TORSDOF 4
