REMARK  Name = GEN
REMARK  4 active torsions:
REMARK  status: ('A' for Active; 'I' for Inactive)
REMARK    1  A    between atoms: C_2  and  O_3
REMARK    2  A    between atoms: C_5  and  O_6
REMARK    3  A    between atoms: C_10  and  C_14
REMARK    4  A    between atoms: C_17  and  O_18
REMARK                            x       y       z     vdW  Elec       q    Type
REMARK                         _______ _______ _______ _____ _____    ______ ____
ROOT
ATOM      1  C   UNL     1       8.396 -10.552 -25.657  0.00  0.00    +0.023 A 
ATOM      2  H   UNL     1       7.554 -11.155 -25.351  0.00  0.00    +0.069 HD
ATOM      3  C   UNL     1       9.394 -10.240 -24.746  0.00  0.00    +0.145 A 
ATOM      4  O   UNL     1       9.334 -10.688 -23.475  0.00  0.00    -0.462 OA
ATOM      5  C   UNL     1      10.101 -10.191 -22.499  0.00  0.00    +0.104 A 
ATOM      6  H   UNL     1       9.847 -10.409 -21.472  0.00  0.00    +0.104 HD
ATOM      7  C   UNL     1      11.189  -9.420 -22.759  0.00  0.00    +0.064 A 
ATOM      8  C   UNL     1      11.512  -9.117 -24.165  0.00  0.00    +0.204 A 
ATOM      9  O   UNL     1      12.579  -8.622 -24.487  0.00  0.00    -0.286 OA
ATOM     10  C   UNL     1      10.480  -9.449 -25.159  0.00  0.00    +0.106 A 
ATOM     11  C   UNL     1      10.560  -8.990 -26.479  0.00  0.00    +0.135 A 
ATOM     12  C   UNL     1       9.556  -9.314 -27.372  0.00  0.00    +0.022 A 
ATOM     13  H   UNL     1       9.609  -8.963 -28.393  0.00  0.00    +0.069 HD
ATOM     14  C   UNL     1       8.479 -10.090 -26.962  0.00  0.00    +0.124 A 
ENDROOT
BRANCH   7  15
ATOM     15  C   UNL     1      12.028  -8.892 -21.656  0.00  0.00    -0.011 A 
ATOM     16  C   UNL     1      11.431  -8.287 -20.552  0.00  0.00    -0.050 A 
ATOM     17  H   UNL     1      10.355  -8.200 -20.499  0.00  0.00    +0.062 HD
ATOM     18  C   UNL     1      12.214  -7.801 -19.526  0.00  0.00    -0.020 A 
ATOM     19  H   UNL     1      11.751  -7.332 -18.670  0.00  0.00    +0.065 HD
ATOM     20  C   UNL     1      13.596  -7.906 -19.596  0.00  0.00    +0.117 A 
ATOM     21  C   UNL     1      14.194  -8.509 -20.692  0.00  0.00    -0.020 A 
ATOM     22  H   UNL     1      15.270  -8.594 -20.741  0.00  0.00    +0.065 HD
ATOM     23  C   UNL     1      13.416  -9.001 -21.720  0.00  0.00    -0.050 A 
ATOM     24  H   UNL     1      13.882  -9.470 -22.574  0.00  0.00    +0.062 HD
BRANCH  20  25
ATOM     25  O   UNL     1      14.365  -7.424 -18.584  0.00  0.00    -0.507 OA
ATOM     26  H   UNL     1      15.147  -7.029 -18.992  0.00  0.00    +0.292 HD
ENDBRANCH  20  25
ENDBRANCH   7  15
BRANCH  11  27
ATOM     27  O   UNL     1      11.614  -8.233 -26.878  0.00  0.00    -0.506 OA
ATOM     28  H   UNL     1      12.362  -8.479 -26.318  0.00  0.00    +0.292 HD
ENDBRANCH  11  27
BRANCH  14  29
ATOM     29  O   UNL     1       7.496 -10.398 -27.846  0.00  0.00    -0.507 OA
ATOM     30  H   UNL     1       7.893 -10.974 -28.514  0.00  0.00    +0.292 HD
ENDBRANCH  14  29
TORSDOF 4
