REMARK  Name = GEN
REMARK  4 active torsions:
REMARK  status: ('A' for Active; 'I' for Inactive)
REMARK    1  A    between atoms: C_2  and  O_3
REMARK    2  A    between atoms: C_5  and  O_6
REMARK    3  A    between atoms: C_10  and  C_14
REMARK    4  A    between atoms: C_17  and  O_18
REMARK                            x       y       z     vdW  Elec       q    Type
REMARK                         _______ _______ _______ _____ _____    ______ ____
ROOT
ATOM      1  C   UNL     1      -1.740  -5.011 -51.299  0.00  0.00    +0.023 A 
ATOM      2  H   UNL     1      -0.995  -5.791 -51.234  0.00  0.00    +0.069 HD
ATOM      3  C   UNL     1      -1.996  -4.397 -52.516  0.00  0.00    +0.145 A 
ATOM      4  O   UNL     1      -1.331  -4.765 -53.630  0.00  0.00    -0.462 OA
ATOM      5  C   UNL     1      -1.330  -4.028 -54.746  0.00  0.00    +0.104 A 
ATOM      6  H   UNL     1      -0.599  -4.239 -55.512  0.00  0.00    +0.104 HD
ATOM      7  C   UNL     1      -2.220  -3.021 -54.945  0.00  0.00    +0.064 A 
ATOM      8  C   UNL     1      -3.201  -2.733 -53.883  0.00  0.00    +0.204 A 
ATOM      9  O   UNL     1      -4.158  -2.002 -54.072  0.00  0.00    -0.286 OA
ATOM     10  C   UNL     1      -2.966  -3.381 -52.583  0.00  0.00    +0.106 A 
ATOM     11  C   UNL     1      -3.672  -3.000 -51.436  0.00  0.00    +0.135 A 
ATOM     12  C   UNL     1      -3.403  -3.626 -50.234  0.00  0.00    +0.022 A 
ATOM     13  H   UNL     1      -3.943  -3.338 -49.343  0.00  0.00    +0.069 HD
ATOM     14  C   UNL     1      -2.439  -4.626 -50.167  0.00  0.00    +0.124 A 
ENDROOT
BRANCH   7  15
ATOM     15  C   UNL     1      -2.203  -2.227 -56.198  0.00  0.00    -0.011 A 
ATOM     16  C   UNL     1      -1.004  -2.017 -56.875  0.00  0.00    -0.050 A 
ATOM     17  H   UNL     1      -0.084  -2.431 -56.487  0.00  0.00    +0.062 HD
ATOM     18  C   UNL     1      -0.992  -1.283 -58.042  0.00  0.00    -0.020 A 
ATOM     19  H   UNL     1      -0.062  -1.120 -58.568  0.00  0.00    +0.065 HD
ATOM     20  C   UNL     1      -2.171  -0.745 -58.538  0.00  0.00    +0.117 A 
ATOM     21  C   UNL     1      -3.367  -0.953 -57.867  0.00  0.00    -0.020 A 
ATOM     22  H   UNL     1      -4.285  -0.537 -58.258  0.00  0.00    +0.065 HD
ATOM     23  C   UNL     1      -3.387  -1.690 -56.702  0.00  0.00    -0.050 A 
ATOM     24  H   UNL     1      -4.318  -1.852 -56.179  0.00  0.00    +0.062 HD
BRANCH  20  25
ATOM     25  O   UNL     1      -2.156  -0.018 -59.687  0.00  0.00    -0.507 OA
ATOM     26  H   UNL     1      -2.639  -0.532 -60.348  0.00  0.00    +0.292 HD
ENDBRANCH  20  25
ENDBRANCH   7  15
BRANCH  11  27
ATOM     27  O   UNL     1      -4.613  -2.025 -51.504  0.00  0.00    -0.506 OA
ATOM     28  H   UNL     1      -4.731  -1.814 -52.440  0.00  0.00    +0.292 HD
ENDBRANCH  11  27
BRANCH  14  29
ATOM     29  O   UNL     1      -2.180  -5.231 -48.980  0.00  0.00    -0.507 OA
ATOM     30  H   UNL     1      -2.777  -5.989 -48.916  0.00  0.00    +0.292 HD
ENDBRANCH  14  29
TORSDOF 4
