REMARK  Name = GEN
REMARK  4 active torsions:
REMARK  status: ('A' for Active; 'I' for Inactive)
REMARK    1  A    between atoms: C_2  and  O_3
REMARK    2  A    between atoms: C_5  and  O_6
REMARK    3  A    between atoms: C_10  and  C_14
REMARK    4  A    between atoms: C_17  and  O_18
REMARK                            x       y       z     vdW  Elec       q    Type
REMARK                         _______ _______ _______ _____ _____    ______ ____
ROOT
ATOM      1  C   UNL     1      -6.706  -2.333 -51.368  0.00  0.00    +0.023 A 
ATOM      2  H   UNL     1      -6.497  -1.809 -50.446  0.00  0.00    +0.069 HD
ATOM      3  C   UNL     1      -5.728  -2.432 -52.346  0.00  0.00    +0.145 A 
ATOM      4  O   UNL     1      -4.508  -1.887 -52.162  0.00  0.00    -0.462 OA
ATOM      5  C   UNL     1      -3.640  -1.705 -53.163  0.00  0.00    +0.104 A 
ATOM      6  H   UNL     1      -2.792  -1.055 -53.008  0.00  0.00    +0.104 HD
ATOM      7  C   UNL     1      -3.795  -2.311 -54.369  0.00  0.00    +0.064 A 
ATOM      8  C   UNL     1      -4.967  -3.182 -54.570  0.00  0.00    +0.204 A 
ATOM      9  O   UNL     1      -5.060  -3.924 -55.534  0.00  0.00    -0.286 OA
ATOM     10  C   UNL     1      -6.017  -3.112 -53.542  0.00  0.00    +0.106 A 
ATOM     11  C   UNL     1      -7.276  -3.693 -53.739  0.00  0.00    +0.135 A 
ATOM     12  C   UNL     1      -8.236  -3.586 -52.751  0.00  0.00    +0.022 A 
ATOM     13  H   UNL     1      -9.210  -4.030 -52.895  0.00  0.00    +0.069 HD
ATOM     14  C   UNL     1      -7.951  -2.906 -51.571  0.00  0.00    +0.124 A 
ENDROOT
BRANCH   7  15
ATOM     15  C   UNL     1      -2.810  -2.100 -55.458  0.00  0.00    -0.011 A 
ATOM     16  C   UNL     1      -3.183  -2.304 -56.785  0.00  0.00    -0.050 A 
ATOM     17  H   UNL     1      -4.190  -2.617 -57.022  0.00  0.00    +0.062 HD
ATOM     18  C   UNL     1      -2.267  -2.101 -57.796  0.00  0.00    -0.020 A 
ATOM     19  H   UNL     1      -2.556  -2.260 -58.825  0.00  0.00    +0.065 HD
ATOM     20  C   UNL     1      -0.973  -1.704 -57.493  0.00  0.00    +0.117 A 
ATOM     21  C   UNL     1      -0.598  -1.499 -56.173  0.00  0.00    -0.020 A 
ATOM     22  H   UNL     1       0.409  -1.186 -55.940  0.00  0.00    +0.065 HD
ATOM     23  C   UNL     1      -1.511  -1.695 -55.158  0.00  0.00    -0.050 A 
ATOM     24  H   UNL     1      -1.219  -1.536 -54.130  0.00  0.00    +0.062 HD
BRANCH  20  25
ATOM     25  O   UNL     1      -0.071  -1.510 -58.491  0.00  0.00    -0.507 OA
ATOM     26  H   UNL     1       0.749  -1.941 -58.215  0.00  0.00    +0.292 HD
ENDBRANCH  20  25
ENDBRANCH   7  15
BRANCH  11  27
ATOM     27  O   UNL     1      -7.550  -4.357 -54.891  0.00  0.00    -0.506 OA
ATOM     28  H   UNL     1      -6.718  -4.430 -55.376  0.00  0.00    +0.292 HD
ENDBRANCH  11  27
BRANCH  14  29
ATOM     29  O   UNL     1      -8.903  -2.803 -50.610  0.00  0.00    -0.507 OA
ATOM     30  H   UNL     1      -8.642  -2.070 -50.035  0.00  0.00    +0.292 HD
ENDBRANCH  14  29
TORSDOF 4
