REMARK  Name = GEN
REMARK  4 active torsions:
REMARK  status: ('A' for Active; 'I' for Inactive)
REMARK    1  A    between atoms: C_2  and  O_3
REMARK    2  A    between atoms: C_5  and  O_6
REMARK    3  A    between atoms: C_10  and  C_14
REMARK    4  A    between atoms: C_17  and  O_18
REMARK                            x       y       z     vdW  Elec       q    Type
REMARK                         _______ _______ _______ _____ _____    ______ ____
ROOT
ATOM      1  C   UNL     1      -3.897  -4.994 -54.365  0.00  0.00    +0.023 A 
ATOM      2  H   UNL     1      -4.853  -5.400 -54.066  0.00  0.00    +0.069 HD
ATOM      3  C   UNL     1      -3.740  -3.625 -54.512  0.00  0.00    +0.145 A 
ATOM      4  O   UNL     1      -4.768  -2.782 -54.280  0.00  0.00    -0.462 OA
ATOM      5  C   UNL     1      -4.756  -1.504 -54.676  0.00  0.00    +0.104 A 
ATOM      6  H   UNL     1      -5.684  -0.951 -54.681  0.00  0.00    +0.104 HD
ATOM      7  C   UNL     1      -3.616  -0.883 -55.073  0.00  0.00    +0.064 A 
ATOM      8  C   UNL     1      -2.361  -1.658 -55.076  0.00  0.00    +0.204 A 
ATOM      9  O   UNL     1      -1.274  -1.121 -55.208  0.00  0.00    -0.286 OA
ATOM     10  C   UNL     1      -2.492  -3.113 -54.907  0.00  0.00    +0.106 A 
ATOM     11  C   UNL     1      -1.414  -3.977 -55.139  0.00  0.00    +0.135 A 
ATOM     12  C   UNL     1      -1.591  -5.339 -54.984  0.00  0.00    +0.022 A 
ATOM     13  H   UNL     1      -0.765  -6.014 -55.162  0.00  0.00    +0.069 HD
ATOM     14  C   UNL     1      -2.828  -5.845 -54.600  0.00  0.00    +0.124 A 
ENDROOT
BRANCH   7  15
ATOM     15  C   UNL     1      -3.631   0.538 -55.497  0.00  0.00    -0.011 A 
ATOM     16  C   UNL     1      -4.766   1.317 -55.285  0.00  0.00    -0.050 A 
ATOM     17  H   UNL     1      -5.638   0.886 -54.812  0.00  0.00    +0.062 HD
ATOM     18  C   UNL     1      -4.776   2.640 -55.674  0.00  0.00    -0.020 A 
ATOM     19  H   UNL     1      -5.657   3.244 -55.510  0.00  0.00    +0.065 HD
ATOM     20  C   UNL     1      -3.660   3.193 -56.287  0.00  0.00    +0.117 A 
ATOM     21  C   UNL     1      -2.528   2.421 -56.498  0.00  0.00    -0.020 A 
ATOM     22  H   UNL     1      -1.659   2.855 -56.970  0.00  0.00    +0.065 HD
ATOM     23  C   UNL     1      -2.510   1.099 -56.106  0.00  0.00    -0.050 A 
ATOM     24  H   UNL     1      -1.629   0.497 -56.272  0.00  0.00    +0.062 HD
BRANCH  20  25
ATOM     25  O   UNL     1      -3.674   4.496 -56.674  0.00  0.00    -0.507 OA
ATOM     26  H   UNL     1      -3.444   5.021 -55.896  0.00  0.00    +0.292 HD
ENDBRANCH  20  25
ENDBRANCH   7  15
BRANCH  11  27
ATOM     27  O   UNL     1      -0.207  -3.481 -55.512  0.00  0.00    -0.506 OA
ATOM     28  H   UNL     1      -0.382  -2.737 -56.103  0.00  0.00    +0.292 HD
ENDBRANCH  11  27
BRANCH  14  29
ATOM     29  O   UNL     1      -2.991  -7.184 -54.456  0.00  0.00    -0.507 OA
ATOM     30  H   UNL     1      -2.974  -7.565 -55.344  0.00  0.00    +0.292 HD
ENDBRANCH  14  29
TORSDOF 4
