REMARK  Name = GEN
REMARK  4 active torsions:
REMARK  status: ('A' for Active; 'I' for Inactive)
REMARK    1  A    between atoms: C_2  and  O_3
REMARK    2  A    between atoms: C_5  and  O_6
REMARK    3  A    between atoms: C_10  and  C_14
REMARK    4  A    between atoms: C_17  and  O_18
REMARK                            x       y       z     vdW  Elec       q    Type
REMARK                         _______ _______ _______ _____ _____    ______ ____
ROOT
ATOM      1  C   UNL     1       7.230   3.024 -26.972  0.00  0.00    +0.023 A 
ATOM      2  H   UNL     1       6.328   2.843 -26.405  0.00  0.00    +0.069 HD
ATOM      3  C   UNL     1       8.410   2.387 -26.621  0.00  0.00    +0.145 A 
ATOM      4  O   UNL     1       8.451   1.532 -25.578  0.00  0.00    -0.462 OA
ATOM      5  C   UNL     1       9.598   1.120 -25.028  0.00  0.00    +0.104 A 
ATOM      6  H   UNL     1       9.571   0.639 -24.061  0.00  0.00    +0.104 HD
ATOM      7  C   UNL     1      10.796   1.290 -25.645  0.00  0.00    +0.064 A 
ATOM      8  C   UNL     1      10.818   1.965 -26.957  0.00  0.00    +0.204 A 
ATOM      9  O   UNL     1      11.810   1.961 -27.665  0.00  0.00    -0.286 OA
ATOM     10  C   UNL     1       9.576   2.638 -27.366  0.00  0.00    +0.106 A 
ATOM     11  C   UNL     1       9.543   3.514 -28.458  0.00  0.00    +0.135 A 
ATOM     12  C   UNL     1       8.355   4.136 -28.793  0.00  0.00    +0.022 A 
ATOM     13  H   UNL     1       8.320   4.815 -29.634  0.00  0.00    +0.069 HD
ATOM     14  C   UNL     1       7.204   3.893 -28.051  0.00  0.00    +0.124 A 
ENDROOT
BRANCH   7  15
ATOM     15  C   UNL     1      12.051   0.813 -25.016  0.00  0.00    -0.011 A 
ATOM     16  C   UNL     1      12.001  -0.088 -23.955  0.00  0.00    -0.050 A 
ATOM     17  H   UNL     1      11.048  -0.439 -23.588  0.00  0.00    +0.062 HD
ATOM     18  C   UNL     1      13.170  -0.534 -23.375  0.00  0.00    -0.020 A 
ATOM     19  H   UNL     1      13.132  -1.232 -22.552  0.00  0.00    +0.065 HD
ATOM     20  C   UNL     1      14.396  -0.078 -23.841  0.00  0.00    +0.117 A 
ATOM     21  C   UNL     1      14.449   0.818 -24.898  0.00  0.00    -0.020 A 
ATOM     22  H   UNL     1      15.405   1.167 -25.262  0.00  0.00    +0.065 HD
ATOM     23  C   UNL     1      13.284   1.264 -25.486  0.00  0.00    -0.050 A 
ATOM     24  H   UNL     1      13.325   1.962 -26.308  0.00  0.00    +0.062 HD
BRANCH  20  25
ATOM     25  O   UNL     1      15.546  -0.516 -23.265  0.00  0.00    -0.507 OA
ATOM     26  H   UNL     1      16.265   0.007 -23.644  0.00  0.00    +0.292 HD
ENDBRANCH  20  25
ENDBRANCH   7  15
BRANCH  11  27
ATOM     27  O   UNL     1      10.667   3.748 -29.181  0.00  0.00    -0.506 OA
ATOM     28  H   UNL     1      11.002   2.887 -29.464  0.00  0.00    +0.292 HD
ENDBRANCH  11  27
BRANCH  14  29
ATOM     29  O   UNL     1       6.045   4.514 -28.387  0.00  0.00    -0.507 OA
ATOM     30  H   UNL     1       5.808   4.204 -29.271  0.00  0.00    +0.292 HD
ENDBRANCH  14  29
TORSDOF 4
