REMARK  Name = ligand.pdb
REMARK  4 active torsions:
REMARK  status: ('A' for Active; 'I' for Inactive)
REMARK    1  A    between atoms: _2  and  _11
REMARK    2  A    between atoms: _4  and  _15
REMARK    3  A    between atoms: _5  and  _20
REMARK    4  A    between atoms: _7  and  _10
REMARK                            x       y       z     vdW  Elec       q    Type
REMARK                         _______ _______ _______ _____ _____    ______ ____
ROOT
ATOM      1  O   UNL     1       1.205   2.034  -0.019  0.00  0.00    -0.462 OA
ATOM      2  C   UNL     1      -0.130   1.709  -0.019  0.00  0.00    +0.208 A 
ATOM      3  C   UNL     1      -0.657   0.475  -0.027  0.00  0.00    +0.064 A 
ATOM      4  C   UNL     1       0.292  -0.672  -0.034  0.00  0.00    +0.204 A 
ATOM      5  C   UNL     1       1.728  -0.336  -0.011  0.00  0.00    +0.106 A 
ATOM      6  C   UNL     1       2.696  -1.343   0.002  0.00  0.00    +0.135 A 
ATOM      7  C   UNL     1       4.048  -1.000   0.019  0.00  0.00    +0.091 A 
ATOM      8  C   UNL     1       4.432   0.341   0.024  0.00  0.00    +0.124 A 
ATOM      9  C   UNL     1       3.464   1.346   0.011  0.00  0.00    +0.092 A 
ATOM     10  O   UNL     1      -0.086  -1.836  -0.069  0.00  0.00    -0.286 OA
ATOM     11  C   UNL     1       2.111   1.005  -0.006  0.00  0.00    +0.145 A 
ENDROOT
BRANCH   3  12
ATOM     12  C   UNL     1      -2.116   0.279  -0.009  0.00  0.00    -0.011 A 
ATOM     13  C   UNL     1      -2.793   0.170   1.207  0.00  0.00    +0.012 A 
ATOM     14  C   UNL     1      -4.175  -0.017   1.224  0.00  0.00    +0.046 A 
ATOM     15  C   UNL     1      -4.883  -0.095   0.025  0.00  0.00    +0.117 A 
ATOM     16  C   UNL     1      -4.209   0.014  -1.191  0.00  0.00    +0.046 A 
ATOM     17  C   UNL     1      -2.827   0.201  -1.208  0.00  0.00    +0.012 A 
BRANCH  15  18
ATOM     18  O   UNL     1      -6.232  -0.277   0.042  0.00  0.00    -0.507 OA
ATOM     19  H   UNL     1      -6.557  -0.307  -0.875  0.00  0.00    +0.292 HD
ENDBRANCH  15  18
ENDBRANCH   3  12
BRANCH   8  20
ATOM     20  O   UNL     1       5.753   0.670   0.040  0.00  0.00    -0.507 OA
ATOM     21  H   UNL     1       6.281  -0.147   0.047  0.00  0.00    +0.292 HD
ENDBRANCH   8  20
BRANCH   6  22
ATOM     22  O   UNL     1       2.377  -2.668  -0.001  0.00  0.00    -0.506 OA
ATOM     23  H   UNL     1       1.415  -2.788   0.009  0.00  0.00    +0.292 HD
ENDBRANCH   6  22
TORSDOF 4
