REMARK VINA RESULT:      -6.7      0.000      0.000
REMARK  Name = ligand.pdb
REMARK  4 active torsions:
REMARK  status: ('A' for Active; 'I' for Inactive)
REMARK    1  A    between atoms: _2  and  _11
REMARK    2  A    between atoms: _4  and  _15
REMARK    3  A    between atoms: _5  and  _20
REMARK    4  A    between atoms: _7  and  _10
REMARK                            x       y       z     vdW  Elec       q    Type
REMARK                         _______ _______ _______ _____ _____    ______ ____
ROOT
ATOM      1  O   UNL     1      28.451 -23.877 -12.910  0.00  0.00    -0.462 OA
ATOM      2  C   UNL     1      29.746 -24.329 -12.830  0.00  0.00    +0.208 A 
ATOM      3  C   UNL     1      30.184 -25.566 -13.112  0.00  0.00    +0.064 A 
ATOM      4  C   UNL     1      29.173 -26.562 -13.562  0.00  0.00    +0.204 A 
ATOM      5  C   UNL     1      27.783 -26.082 -13.674  0.00  0.00    +0.106 A 
ATOM      6  C   UNL     1      26.766 -26.937 -14.104  0.00  0.00    +0.135 A 
ATOM      7  C   UNL     1      25.458 -26.461 -14.197  0.00  0.00    +0.091 A 
ATOM      8  C   UNL     1      25.167 -25.138 -13.863  0.00  0.00    +0.124 A 
ATOM      9  C   UNL     1      26.184 -24.285 -13.433  0.00  0.00    +0.092 A 
ATOM     10  O   UNL     1      29.465 -27.723 -13.817  0.00  0.00    -0.286 OA
ATOM     11  C   UNL     1      27.493 -24.760 -13.339  0.00  0.00    +0.145 A 
ENDROOT
BRANCH   3  12
ATOM     12  C   UNL     1      31.612 -25.903 -12.995  0.00  0.00    -0.011 A 
ATOM     13  C   UNL     1      32.411 -25.972 -14.138  0.00  0.00    +0.012 A 
ATOM     14  C   UNL     1      33.764 -26.292 -14.028  0.00  0.00    +0.046 A 
ATOM     15  C   UNL     1      34.321 -26.545 -12.774  0.00  0.00    +0.117 A 
ATOM     16  C   UNL     1      33.525 -26.477 -11.631  0.00  0.00    +0.046 A 
ATOM     17  C   UNL     1      32.172 -26.156 -11.742  0.00  0.00    +0.012 A 
BRANCH  15  18
ATOM     18  O   UNL     1      35.642 -26.858 -12.667  0.00  0.00    -0.507 OA
ATOM     19  H   UNL     1      35.756 -27.497 -11.942  0.00  0.00    +0.292 HD
ENDBRANCH  15  18
ENDBRANCH   3  12
BRANCH   8  20
ATOM     20  O   UNL     1      23.889 -24.679 -13.956  0.00  0.00    -0.507 OA
ATOM     21  H   UNL     1      23.860 -23.956 -14.605  0.00  0.00    +0.292 HD
ENDBRANCH   8  20
BRANCH   6  22
ATOM     22  O   UNL     1      26.994 -28.237 -14.444  0.00  0.00    -0.506 OA
ATOM     23  H   UNL     1      26.380 -28.522 -15.137  0.00  0.00    +0.292 HD
ENDBRANCH   6  22
TORSDOF 4
