MODEL 1
REMARK VINA RESULT:      -6.5      0.000      0.000
REMARK  Name = ligand.pdb
REMARK  4 active torsions:
REMARK  status: ('A' for Active; 'I' for Inactive)
REMARK    1  A    between atoms: _2  and  _11
REMARK    2  A    between atoms: _4  and  _15
REMARK    3  A    between atoms: _5  and  _20
REMARK    4  A    between atoms: _7  and  _10
REMARK                            x       y       z     vdW  Elec       q    Type
REMARK                         _______ _______ _______ _____ _____    ______ ____
ROOT
ATOM      1  O   UNL     1      28.556 -23.859 -12.483  0.00  0.00    -0.462 OA
ATOM      2  C   UNL     1      29.846 -24.333 -12.464  0.00  0.00    +0.208 A 
ATOM      3  C   UNL     1      30.296 -25.462 -13.033  0.00  0.00    +0.064 A 
ATOM      4  C   UNL     1      29.307 -26.296 -13.769  0.00  0.00    +0.204 A 
ATOM      5  C   UNL     1      27.924 -25.786 -13.817  0.00  0.00    +0.106 A 
ATOM      6  C   UNL     1      26.928 -26.489 -14.498  0.00  0.00    +0.135 A 
ATOM      7  C   UNL     1      25.626 -25.989 -14.525  0.00  0.00    +0.091 A 
ATOM      8  C   UNL     1      25.320 -24.793 -13.876  0.00  0.00    +0.124 A 
ATOM      9  C   UNL     1      26.317 -24.092 -13.196  0.00  0.00    +0.092 A 
ATOM     10  O   UNL     1      29.611 -27.357 -14.301  0.00  0.00    -0.286 OA
ATOM     11  C   UNL     1      27.619 -24.590 -13.168  0.00  0.00    +0.145 A 
ENDROOT
BRANCH   3  12
ATOM     12  C   UNL     1      31.718 -25.835 -12.943  0.00  0.00    -0.011 A 
ATOM     13  C   UNL     1      32.516 -25.834 -14.088  0.00  0.00    +0.012 A 
ATOM     14  C   UNL     1      33.862 -26.190 -14.003  0.00  0.00    +0.046 A 
ATOM     15  C   UNL     1      34.412 -26.546 -12.772  0.00  0.00    +0.117 A 
ATOM     16  C   UNL     1      33.617 -26.548 -11.626  0.00  0.00    +0.046 A 
ATOM     17  C   UNL     1      32.271 -26.193 -11.712  0.00  0.00    +0.012 A 
BRANCH  15  18
ATOM     18  O   UNL     1      35.726 -26.893 -12.689  0.00  0.00    -0.507 OA
ATOM     19  H   UNL     1      36.113 -26.472 -11.901  0.00  0.00    +0.292 HD
ENDBRANCH  15  18
ENDBRANCH   3  12
BRANCH   8  20
ATOM     20  O   UNL     1      24.048 -24.310 -13.905  0.00  0.00    -0.507 OA
ATOM     21  H   UNL     1      23.960 -23.699 -14.657  0.00  0.00    +0.292 HD
ENDBRANCH   8  20
BRANCH   6  22
ATOM     22  O   UNL     1      27.171 -27.661 -15.150  0.00  0.00    -0.506 OA
ATOM     23  H   UNL     1      26.498 -28.322 -14.927  0.00  0.00    +0.292 HD
ENDBRANCH   6  22
TORSDOF 4
ENDMDL
MODEL 2
REMARK VINA RESULT:      -6.3      1.265      2.854
REMARK  Name = ligand.pdb
REMARK  4 active torsions:
REMARK  status: ('A' for Active; 'I' for Inactive)
REMARK    1  A    between atoms: _2  and  _11
REMARK    2  A    between atoms: _4  and  _15
REMARK    3  A    between atoms: _5  and  _20
REMARK    4  A    between atoms: _7  and  _10
REMARK                            x       y       z     vdW  Elec       q    Type
REMARK                         _______ _______ _______ _____ _____    ______ ____
ROOT
ATOM      1  O   UNL     1      29.637 -27.370 -14.304  0.00  0.00    -0.462 OA
ATOM      2  C   UNL     1      30.977 -27.299 -14.007  0.00  0.00    +0.208 A 
ATOM      3  C   UNL     1      31.579 -26.395 -13.219  0.00  0.00    +0.064 A 
ATOM      4  C   UNL     1      30.717 -25.356 -12.591  0.00  0.00    +0.204 A 
ATOM      5  C   UNL     1      29.273 -25.436 -12.884  0.00  0.00    +0.106 A 
ATOM      6  C   UNL     1      28.381 -24.517 -12.327  0.00  0.00    +0.135 A 
ATOM      7  C   UNL     1      27.020 -24.611 -12.623  0.00  0.00    +0.091 A 
ATOM      8  C   UNL     1      26.553 -25.617 -13.468  0.00  0.00    +0.124 A 
ATOM      9  C   UNL     1      27.446 -26.534 -14.024  0.00  0.00    +0.092 A 
ATOM     10  O   UNL     1      31.170 -24.471 -11.878  0.00  0.00    -0.286 OA
ATOM     11  C   UNL     1      28.807 -26.443 -13.729  0.00  0.00    +0.145 A 
ENDROOT
BRANCH   3  12
ATOM     12  C   UNL     1      33.030 -26.453 -12.978  0.00  0.00    -0.011 A 
ATOM     13  C   UNL     1      33.521 -26.529 -11.674  0.00  0.00    +0.012 A 
ATOM     14  C   UNL     1      34.896 -26.583 -11.446  0.00  0.00    +0.046 A 
ATOM     15  C   UNL     1      35.782 -26.561 -12.522  0.00  0.00    +0.117 A 
ATOM     16  C   UNL     1      35.294 -26.485 -13.826  0.00  0.00    +0.046 A 
ATOM     17  C   UNL     1      33.920 -26.431 -14.054  0.00  0.00    +0.012 A 
BRANCH  15  18
ATOM     18  O   UNL     1      37.124 -26.613 -12.299  0.00  0.00    -0.507 OA
ATOM     19  H   UNL     1      37.461 -25.707 -12.188  0.00  0.00    +0.292 HD
ENDBRANCH  15  18
ENDBRANCH   3  12
BRANCH   8  20
ATOM     20  O   UNL     1      25.225 -25.703 -13.754  0.00  0.00    -0.507 OA
ATOM     21  H   UNL     1      24.750 -25.020 -13.250  0.00  0.00    +0.292 HD
ENDBRANCH   8  20
BRANCH   6  22
ATOM     22  O   UNL     1      28.782 -23.516 -11.494  0.00  0.00    -0.506 OA
ATOM     23  H   UNL     1      29.078 -23.876 -10.644  0.00  0.00    +0.292 HD
ENDBRANCH   6  22
TORSDOF 4
ENDMDL
MODEL 3
REMARK VINA RESULT:      -6.0      1.748      7.329
REMARK  Name = ligand.pdb
REMARK  4 active torsions:
REMARK  status: ('A' for Active; 'I' for Inactive)
REMARK    1  A    between atoms: _2  and  _11
REMARK    2  A    between atoms: _4  and  _15
REMARK    3  A    between atoms: _5  and  _20
REMARK    4  A    between atoms: _7  and  _10
REMARK                            x       y       z     vdW  Elec       q    Type
REMARK                         _______ _______ _______ _____ _____    ______ ____
ROOT
ATOM      1  O   UNL     1      33.558 -26.237 -10.946  0.00  0.00    -0.462 OA
ATOM      2  C   UNL     1      32.265 -25.944 -11.305  0.00  0.00    +0.208 A 
ATOM      3  C   UNL     1      31.767 -25.900 -12.550  0.00  0.00    +0.064 A 
ATOM      4  C   UNL     1      32.702 -26.199 -13.670  0.00  0.00    +0.204 A 
ATOM      5  C   UNL     1      34.088 -26.536 -13.295  0.00  0.00    +0.106 A 
ATOM      6  C   UNL     1      35.035 -26.849 -14.273  0.00  0.00    +0.135 A 
ATOM      7  C   UNL     1      36.341 -27.161 -13.895  0.00  0.00    +0.091 A 
ATOM      8  C   UNL     1      36.699 -27.161 -12.547  0.00  0.00    +0.124 A 
ATOM      9  C   UNL     1      35.752 -26.848 -11.571  0.00  0.00    +0.092 A 
ATOM     10  O   UNL     1      32.354 -26.158 -14.843  0.00  0.00    -0.286 OA
ATOM     11  C   UNL     1      34.445 -26.536 -11.947  0.00  0.00    +0.145 A 
ENDROOT
BRANCH   3  12
ATOM     12  C   UNL     1      30.348 -25.586 -12.783  0.00  0.00    -0.011 A 
ATOM     13  C   UNL     1      29.876 -24.286 -12.589  0.00  0.00    +0.012 A 
ATOM     14  C   UNL     1      28.531 -23.990 -12.808  0.00  0.00    +0.046 A 
ATOM     15  C   UNL     1      27.655 -24.992 -13.223  0.00  0.00    +0.117 A 
ATOM     16  C   UNL     1      28.123 -26.291 -13.418  0.00  0.00    +0.046 A 
ATOM     17  C   UNL     1      29.468 -26.588 -13.199  0.00  0.00    +0.012 A 
BRANCH  15  18
ATOM     18  O   UNL     1      26.342 -24.702 -13.437  0.00  0.00    -0.507 OA
ATOM     19  H   UNL     1      26.051 -24.053 -12.773  0.00  0.00    +0.292 HD
ENDBRANCH  15  18
ENDBRANCH   3  12
BRANCH   8  20
ATOM     20  O   UNL     1      37.975 -27.466 -12.183  0.00  0.00    -0.507 OA
ATOM     21  H   UNL     1      38.335 -28.117 -12.809  0.00  0.00    +0.292 HD
ENDBRANCH   8  20
BRANCH   6  22
ATOM     22  O   UNL     1      34.739 -26.865 -15.604  0.00  0.00    -0.506 OA
ATOM     23  H   UNL     1      34.124 -27.586 -15.808  0.00  0.00    +0.292 HD
ENDBRANCH   6  22
TORSDOF 4
ENDMDL
MODEL 4
REMARK VINA RESULT:      -5.7      3.168      7.602
REMARK  Name = ligand.pdb
REMARK  4 active torsions:
REMARK  status: ('A' for Active; 'I' for Inactive)
REMARK    1  A    between atoms: _2  and  _11
REMARK    2  A    between atoms: _4  and  _15
REMARK    3  A    between atoms: _5  and  _20
REMARK    4  A    between atoms: _7  and  _10
REMARK                            x       y       z     vdW  Elec       q    Type
REMARK                         _______ _______ _______ _____ _____    ______ ____
ROOT
ATOM      1  O   UNL     1      33.429 -26.444 -15.376  0.00  0.00    -0.462 OA
ATOM      2  C   UNL     1      32.401 -26.129 -14.521  0.00  0.00    +0.208 A 
ATOM      3  C   UNL     1      32.455 -26.083 -13.181  0.00  0.00    +0.064 A 
ATOM      4  C   UNL     1      33.760 -26.402 -12.540  0.00  0.00    +0.204 A 
ATOM      5  C   UNL     1      34.878 -26.720 -13.448  0.00  0.00    +0.106 A 
ATOM      6  C   UNL     1      36.146 -27.015 -12.943  0.00  0.00    +0.135 A 
ATOM      7  C   UNL     1      37.186 -27.317 -13.823  0.00  0.00    +0.091 A 
ATOM      8  C   UNL     1      36.961 -27.323 -15.199  0.00  0.00    +0.124 A 
ATOM      9  C   UNL     1      35.694 -27.028 -15.703  0.00  0.00    +0.092 A 
ATOM     10  O   UNL     1      33.908 -26.415 -11.324  0.00  0.00    -0.286 OA
ATOM     11  C   UNL     1      34.652 -26.725 -14.825  0.00  0.00    +0.145 A 
ENDROOT
BRANCH   3  12
ATOM     12  C   UNL     1      31.269 -25.711 -12.391  0.00  0.00    -0.011 A 
ATOM     13  C   UNL     1      30.821 -24.389 -12.381  0.00  0.00    +0.012 A 
ATOM     14  C   UNL     1      29.699 -24.037 -11.632  0.00  0.00    +0.046 A 
ATOM     15  C   UNL     1      29.022 -25.006 -10.892  0.00  0.00    +0.117 A 
ATOM     16  C   UNL     1      29.467 -26.327 -10.901  0.00  0.00    +0.046 A 
ATOM     17  C   UNL     1      30.590 -26.680 -11.650  0.00  0.00    +0.012 A 
BRANCH  15  18
ATOM     18  O   UNL     1      27.926 -24.661 -10.161  0.00  0.00    -0.507 OA
ATOM     19  H   UNL     1      27.576 -25.458  -9.725  0.00  0.00    +0.292 HD
ENDBRANCH  15  18
ENDBRANCH   3  12
BRANCH   8  20
ATOM     20  O   UNL     1      37.979 -27.619 -16.053  0.00  0.00    -0.507 OA
ATOM     21  H   UNL     1      38.040 -26.919 -16.726  0.00  0.00    +0.292 HD
ENDBRANCH   8  20
BRANCH   6  22
ATOM     22  O   UNL     1      36.421 -27.023 -11.608  0.00  0.00    -0.506 OA
ATOM     23  H   UNL     1      36.995 -27.770 -11.382  0.00  0.00    +0.292 HD
ENDBRANCH   6  22
TORSDOF 4
ENDMDL
MODEL 5
REMARK VINA RESULT:      -5.6      1.887      7.535
REMARK  Name = ligand.pdb
REMARK  4 active torsions:
REMARK  status: ('A' for Active; 'I' for Inactive)
REMARK    1  A    between atoms: _2  and  _11
REMARK    2  A    between atoms: _4  and  _15
REMARK    3  A    between atoms: _5  and  _20
REMARK    4  A    between atoms: _7  and  _10
REMARK                            x       y       z     vdW  Elec       q    Type
REMARK                         _______ _______ _______ _____ _____    ______ ____
ROOT
ATOM      1  O   UNL     1      33.480 -27.089 -14.897  0.00  0.00    -0.462 OA
ATOM      2  C   UNL     1      32.180 -26.734 -14.633  0.00  0.00    +0.208 A 
ATOM      3  C   UNL     1      31.688 -26.293 -13.465  0.00  0.00    +0.064 A 
ATOM      4  C   UNL     1      32.640 -26.170 -12.327  0.00  0.00    +0.204 A 
ATOM      5  C   UNL     1      34.044 -26.527 -12.604  0.00  0.00    +0.106 A 
ATOM      6  C   UNL     1      35.016 -26.428 -11.606  0.00  0.00    +0.135 A 
ATOM      7  C   UNL     1      36.336 -26.776 -11.891  0.00  0.00    +0.091 A 
ATOM      8  C   UNL     1      36.685 -27.220 -13.167  0.00  0.00    +0.124 A 
ATOM      9  C   UNL     1      35.713 -27.319 -14.163  0.00  0.00    +0.092 A 
ATOM     10  O   UNL     1      32.288 -25.804 -11.213  0.00  0.00    -0.286 OA
ATOM     11  C   UNL     1      34.392 -26.971 -13.880  0.00  0.00    +0.145 A 
ENDROOT
BRANCH   3  12
ATOM     12  C   UNL     1      30.267 -25.932 -13.334  0.00  0.00    -0.011 A 
ATOM     13  C   UNL     1      29.276 -26.879 -13.597  0.00  0.00    +0.012 A 
ATOM     14  C   UNL     1      27.930 -26.536 -13.475  0.00  0.00    +0.046 A 
ATOM     15  C   UNL     1      27.571 -25.245 -13.088  0.00  0.00    +0.117 A 
ATOM     16  C   UNL     1      28.559 -24.297 -12.824  0.00  0.00    +0.046 A 
ATOM     17  C   UNL     1      29.906 -24.640 -12.946  0.00  0.00    +0.012 A 
BRANCH  15  18
ATOM     18  O   UNL     1      26.257 -24.911 -12.968  0.00  0.00    -0.507 OA
ATOM     19  H   UNL     1      25.755 -25.700 -12.697  0.00  0.00    +0.292 HD
ENDBRANCH  15  18
ENDBRANCH   3  12
BRANCH   8  20
ATOM     20  O   UNL     1      37.975 -27.560 -13.440  0.00  0.00    -0.507 OA
ATOM     21  H   UNL     1      38.568 -26.945 -12.974  0.00  0.00    +0.292 HD
ENDBRANCH   8  20
BRANCH   6  22
ATOM     22  O   UNL     1      34.731 -25.999 -10.344  0.00  0.00    -0.506 OA
ATOM     23  H   UNL     1      33.792 -26.131 -10.142  0.00  0.00    +0.292 HD
ENDBRANCH   6  22
TORSDOF 4
ENDMDL
MODEL 6
REMARK VINA RESULT:      -5.5      1.352      7.065
REMARK  Name = ligand.pdb
REMARK  4 active torsions:
REMARK  status: ('A' for Active; 'I' for Inactive)
REMARK    1  A    between atoms: _2  and  _11
REMARK    2  A    between atoms: _4  and  _15
REMARK    3  A    between atoms: _5  and  _20
REMARK    4  A    between atoms: _7  and  _10
REMARK                            x       y       z     vdW  Elec       q    Type
REMARK                         _______ _______ _______ _____ _____    ______ ____
ROOT
ATOM      1  O   UNL     1      30.612 -27.405 -14.763  0.00  0.00    -0.462 OA
ATOM      2  C   UNL     1      29.313 -26.963 -14.687  0.00  0.00    +0.208 A 
ATOM      3  C   UNL     1      28.760 -26.260 -13.687  0.00  0.00    +0.064 A 
ATOM      4  C   UNL     1      29.633 -25.912 -12.533  0.00  0.00    +0.204 A 
ATOM      5  C   UNL     1      31.036 -26.361 -12.613  0.00  0.00    +0.106 A 
ATOM      6  C   UNL     1      31.938 -26.068 -11.587  0.00  0.00    +0.135 A 
ATOM      7  C   UNL     1      33.258 -26.508 -11.683  0.00  0.00    +0.091 A 
ATOM      8  C   UNL     1      33.677 -27.235 -12.798  0.00  0.00    +0.124 A 
ATOM      9  C   UNL     1      32.775 -27.527 -13.822  0.00  0.00    +0.092 A 
ATOM     10  O   UNL     1      29.219 -25.298 -11.559  0.00  0.00    -0.286 OA
ATOM     11  C   UNL     1      31.454 -27.088 -13.728  0.00  0.00    +0.145 A 
ENDROOT
BRANCH   3  12
ATOM     12  C   UNL     1      27.350 -25.840 -13.753  0.00  0.00    -0.011 A 
ATOM     13  C   UNL     1      26.331 -26.786 -13.631  0.00  0.00    +0.012 A 
ATOM     14  C   UNL     1      24.996 -26.387 -13.694  0.00  0.00    +0.046 A 
ATOM     15  C   UNL     1      24.677 -25.042 -13.878  0.00  0.00    +0.117 A 
ATOM     16  C   UNL     1      25.694 -24.095 -13.999  0.00  0.00    +0.046 A 
ATOM     17  C   UNL     1      27.029 -24.493 -13.936  0.00  0.00    +0.012 A 
BRANCH  15  18
ATOM     18  O   UNL     1      23.374 -24.654 -13.939  0.00  0.00    -0.507 OA
ATOM     19  H   UNL     1      22.808 -25.445 -13.914  0.00  0.00    +0.292 HD
ENDBRANCH  15  18
ENDBRANCH   3  12
BRANCH   8  20
ATOM     20  O   UNL     1      34.967 -27.661 -12.886  0.00  0.00    -0.507 OA
ATOM     21  H   UNL     1      35.529 -26.912 -13.148  0.00  0.00    +0.292 HD
ENDBRANCH   8  20
BRANCH   6  22
ATOM     22  O   UNL     1      31.583 -25.361 -10.477  0.00  0.00    -0.506 OA
ATOM     23  H   UNL     1      31.905 -25.800  -9.675  0.00  0.00    +0.292 HD
ENDBRANCH   6  22
TORSDOF 4
ENDMDL
MODEL 7
REMARK VINA RESULT:      -5.0      3.517      7.666
REMARK  Name = ligand.pdb
REMARK  4 active torsions:
REMARK  status: ('A' for Active; 'I' for Inactive)
REMARK    1  A    between atoms: _2  and  _11
REMARK    2  A    between atoms: _4  and  _15
REMARK    3  A    between atoms: _5  and  _20
REMARK    4  A    between atoms: _7  and  _10
REMARK                            x       y       z     vdW  Elec       q    Type
REMARK                         _______ _______ _______ _____ _____    ______ ____
ROOT
ATOM      1  O   UNL     1      33.411 -26.067 -16.567  0.00  0.00    -0.462 OA
ATOM      2  C   UNL     1      32.561 -26.161 -15.491  0.00  0.00    +0.208 A 
ATOM      3  C   UNL     1      32.907 -26.263 -14.199  0.00  0.00    +0.064 A 
ATOM      4  C   UNL     1      34.362 -26.272 -13.881  0.00  0.00    +0.204 A 
ATOM      5  C   UNL     1      35.284 -26.148 -15.025  0.00  0.00    +0.106 A 
ATOM      6  C   UNL     1      36.667 -26.129 -14.828  0.00  0.00    +0.135 A 
ATOM      7  C   UNL     1      37.519 -26.016 -15.926  0.00  0.00    +0.091 A 
ATOM      8  C   UNL     1      36.994 -25.920 -17.215  0.00  0.00    +0.124 A 
ATOM      9  C   UNL     1      35.613 -25.939 -17.411  0.00  0.00    +0.092 A 
ATOM     10  O   UNL     1      34.783 -26.388 -12.737  0.00  0.00    -0.286 OA
ATOM     11  C   UNL     1      34.759 -26.053 -16.314  0.00  0.00    +0.145 A 
ENDROOT
BRANCH   3  12
ATOM     12  C   UNL     1      31.880 -26.340 -13.148  0.00  0.00    -0.011 A 
ATOM     13  C   UNL     1      31.432 -27.583 -12.696  0.00  0.00    +0.012 A 
ATOM     14  C   UNL     1      30.458 -27.656 -11.701  0.00  0.00    +0.046 A 
ATOM     15  C   UNL     1      29.929 -26.487 -11.155  0.00  0.00    +0.117 A 
ATOM     16  C   UNL     1      30.374 -25.244 -11.605  0.00  0.00    +0.046 A 
ATOM     17  C   UNL     1      31.349 -25.171 -12.600  0.00  0.00    +0.012 A 
BRANCH  15  18
ATOM     18  O   UNL     1      28.978 -26.559 -10.184  0.00  0.00    -0.507 OA
ATOM     19  H   UNL     1      28.494 -27.398 -10.278  0.00  0.00    +0.292 HD
ENDBRANCH  15  18
ENDBRANCH   3  12
BRANCH   8  20
ATOM     20  O   UNL     1      37.831 -25.810 -18.284  0.00  0.00    -0.507 OA
ATOM     21  H   UNL     1      37.479 -25.137 -18.891  0.00  0.00    +0.292 HD
ENDBRANCH   8  20
BRANCH   6  22
ATOM     22  O   UNL     1      37.233 -26.218 -13.591  0.00  0.00    -0.506 OA
ATOM     23  H   UNL     1      37.985 -26.830 -13.603  0.00  0.00    +0.292 HD
ENDBRANCH   6  22
TORSDOF 4
ENDMDL
MODEL 8
REMARK VINA RESULT:      -5.0      2.480      3.004
REMARK  Name = ligand.pdb
REMARK  4 active torsions:
REMARK  status: ('A' for Active; 'I' for Inactive)
REMARK    1  A    between atoms: _2  and  _11
REMARK    2  A    between atoms: _4  and  _15
REMARK    3  A    between atoms: _5  and  _20
REMARK    4  A    between atoms: _7  and  _10
REMARK                            x       y       z     vdW  Elec       q    Type
REMARK                         _______ _______ _______ _____ _____    ______ ____
ROOT
ATOM      1  O   UNL     1      27.512 -26.974 -14.441  0.00  0.00    -0.462 OA
ATOM      2  C   UNL     1      28.877 -26.940 -14.593  0.00  0.00    +0.208 A 
ATOM      3  C   UNL     1      29.797 -27.058 -13.624  0.00  0.00    +0.064 A 
ATOM      4  C   UNL     1      29.301 -27.248 -12.233  0.00  0.00    +0.204 A 
ATOM      5  C   UNL     1      27.838 -27.309 -12.060  0.00  0.00    +0.106 A 
ATOM      6  C   UNL     1      27.277 -27.502 -10.795  0.00  0.00    +0.135 A 
ATOM      7  C   UNL     1      25.889 -27.551 -10.656  0.00  0.00    +0.091 A 
ATOM      8  C   UNL     1      25.067 -27.409 -11.774  0.00  0.00    +0.124 A 
ATOM      9  C   UNL     1      25.629 -27.216 -13.037  0.00  0.00    +0.092 A 
ATOM     10  O   UNL     1      30.057 -27.338 -11.274  0.00  0.00    -0.286 OA
ATOM     11  C   UNL     1      27.016 -27.167 -13.177  0.00  0.00    +0.145 A 
ENDROOT
BRANCH   3  12
ATOM     12  C   UNL     1      31.234 -27.019 -13.940  0.00  0.00    -0.011 A 
ATOM     13  C   UNL     1      31.716 -27.651 -15.088  0.00  0.00    +0.012 A 
ATOM     14  C   UNL     1      33.077 -27.615 -15.387  0.00  0.00    +0.046 A 
ATOM     15  C   UNL     1      33.960 -26.946 -14.540  0.00  0.00    +0.117 A 
ATOM     16  C   UNL     1      33.481 -26.313 -13.393  0.00  0.00    +0.046 A 
ATOM     17  C   UNL     1      32.120 -26.349 -13.094  0.00  0.00    +0.012 A 
BRANCH  15  18
ATOM     18  O   UNL     1      35.289 -26.911 -14.832  0.00  0.00    -0.507 OA
ATOM     19  H   UNL     1      35.752 -27.558 -14.272  0.00  0.00    +0.292 HD
ENDBRANCH  15  18
ENDBRANCH   3  12
BRANCH   8  20
ATOM     20  O   UNL     1      23.713 -27.458 -11.633  0.00  0.00    -0.507 OA
ATOM     21  H   UNL     1      23.497 -27.484 -10.685  0.00  0.00    +0.292 HD
ENDBRANCH   8  20
BRANCH   6  22
ATOM     22  O   UNL     1      28.033 -27.647  -9.671  0.00  0.00    -0.506 OA
ATOM     23  H   UNL     1      28.628 -28.408  -9.755  0.00  0.00    +0.292 HD
ENDBRANCH   6  22
TORSDOF 4
ENDMDL
MODEL 9
REMARK VINA RESULT:      -4.9      1.473      2.278
REMARK  Name = ligand.pdb
REMARK  4 active torsions:
REMARK  status: ('A' for Active; 'I' for Inactive)
REMARK    1  A    between atoms: _2  and  _11
REMARK    2  A    between atoms: _4  and  _15
REMARK    3  A    between atoms: _5  and  _20
REMARK    4  A    between atoms: _7  and  _10
REMARK                            x       y       z     vdW  Elec       q    Type
REMARK                         _______ _______ _______ _____ _____    ______ ____
ROOT
ATOM      1  O   UNL     1      30.310 -25.254 -11.710  0.00  0.00    -0.462 OA
ATOM      2  C   UNL     1      31.616 -25.567 -12.001  0.00  0.00    +0.208 A 
ATOM      3  C   UNL     1      32.056 -26.295 -13.039  0.00  0.00    +0.064 A 
ATOM      4  C   UNL     1      31.034 -26.823 -13.983  0.00  0.00    +0.204 A 
ATOM      5  C   UNL     1      29.631 -26.475 -13.694  0.00  0.00    +0.106 A 
ATOM      6  C   UNL     1      28.601 -26.909 -14.532  0.00  0.00    +0.135 A 
ATOM      7  C   UNL     1      27.281 -26.571 -14.234  0.00  0.00    +0.091 A 
ATOM      8  C   UNL     1      26.990 -25.802 -13.107  0.00  0.00    +0.124 A 
ATOM      9  C   UNL     1      28.019 -25.369 -12.271  0.00  0.00    +0.092 A 
ATOM     10  O   UNL     1      31.329 -27.521 -14.945  0.00  0.00    -0.286 OA
ATOM     11  C   UNL     1      29.341 -25.706 -12.567  0.00  0.00    +0.145 A 
ENDROOT
BRANCH   3  12
ATOM     12  C   UNL     1      33.496 -26.535 -13.233  0.00  0.00    -0.011 A 
ATOM     13  C   UNL     1      34.231 -27.209 -12.257  0.00  0.00    +0.012 A 
ATOM     14  C   UNL     1      35.595 -27.436 -12.440  0.00  0.00    +0.046 A 
ATOM     15  C   UNL     1      36.226 -26.990 -13.601  0.00  0.00    +0.117 A 
ATOM     16  C   UNL     1      35.493 -26.317 -14.578  0.00  0.00    +0.046 A 
ATOM     17  C   UNL     1      34.129 -26.090 -14.395  0.00  0.00    +0.012 A 
BRANCH  15  18
ATOM     18  O   UNL     1      37.557 -27.212 -13.781  0.00  0.00    -0.507 OA
ATOM     19  H   UNL     1      37.972 -27.357 -12.912  0.00  0.00    +0.292 HD
ENDBRANCH  15  18
ENDBRANCH   3  12
BRANCH   8  20
ATOM     20  O   UNL     1      25.699 -25.475 -12.822  0.00  0.00    -0.507 OA
ATOM     21  H   UNL     1      25.248 -26.259 -12.464  0.00  0.00    +0.292 HD
ENDBRANCH   8  20
BRANCH   6  22
ATOM     22  O   UNL     1      28.828 -27.661 -15.646  0.00  0.00    -0.506 OA
ATOM     23  H   UNL     1      29.766 -27.633 -15.891  0.00  0.00    +0.292 HD
ENDBRANCH   6  22
TORSDOF 4
ENDMDL
