MODEL 1
REMARK VINA RESULT:      -6.9      0.000      0.000
REMARK  4 active torsions:
REMARK  status: ('A' for Active; 'I' for Inactive)
REMARK    1  A    between atoms: O_2  and  C_11 
REMARK    2  A    between atoms: O_4  and  C_15 
REMARK    3  A    between atoms: O_5  and  C_20 
REMARK    4  A    between atoms: C_7  and  C_10 
ROOT
HETATM    1  O   UNK     0      20.806 -24.806 -20.998  0.00  0.00    -0.321 OA
HETATM    2  O   UNK     0      19.600 -28.603 -20.117  0.00  0.00    -0.286 OA
HETATM    3  C   UNK     0      21.060 -27.199 -21.317  0.00  0.00     0.082 A 
HETATM    4  C   UNK     0      19.340 -26.268 -19.729  0.00  0.00     0.048 A 
HETATM    5  C   UNK     0      21.423 -25.880 -21.588  0.00  0.00     0.094 A 
HETATM    6  C   UNK     0      19.968 -27.461 -20.361  0.00  0.00     0.200 A 
HETATM    7  C   UNK     0      21.724 -28.254 -21.948  0.00  0.00     0.085 A 
HETATM    8  C   UNK     0      19.805 -25.063 -20.093  0.00  0.00     0.159 A 
HETATM    9  C   UNK     0      22.450 -25.608 -22.492  0.00  0.00     0.074 A 
HETATM   10  C   UNK     0      22.750 -27.980 -22.852  0.00  0.00     0.074 A 
HETATM   11  C   UNK     0      23.113 -26.661 -23.124  0.00  0.00     0.071 A 
ENDROOT
BRANCH   4  12
HETATM   12  C   UNK     0      18.267 -26.391 -18.728  0.00  0.00    -0.020 A 
HETATM   13  C   UNK     0      18.247 -27.477 -17.852  0.00  0.00     0.015 A 
HETATM   14  C   UNK     0      17.231 -27.593 -16.904  0.00  0.00     0.037 A 
HETATM   15  C   UNK     0      16.232 -26.622 -16.830  0.00  0.00     0.065 A 
HETATM   16  C   UNK     0      16.250 -25.535 -17.704  0.00  0.00     0.037 A 
HETATM   17  C   UNK     0      17.266 -25.420 -18.653  0.00  0.00     0.015 A 
BRANCH  15  18
HETATM   18  O   UNK     0      15.241 -26.735 -15.904  0.00  0.00    -0.361 OA
HETATM   19  H   UNK     0      14.848 -27.622 -15.969  0.00  0.00     0.217 HD
ENDBRANCH  15  18
ENDBRANCH   4  12
BRANCH   7  20
HETATM   20  O   UNK     0      21.410 -29.560 -21.719  0.00  0.00    -0.360 OA
HETATM   21  H   UNK     0      21.432 -29.755 -20.770  0.00  0.00     0.217 HD
ENDBRANCH   7  20
BRANCH  11  22
HETATM   22  O   UNK     0      24.116 -26.400 -24.008  0.00  0.00    -0.361 OA
HETATM   23  H   UNK     0      23.981 -25.512 -24.383  0.00  0.00     0.217 HD
ENDBRANCH  11  22
TORSDOF 4
ENDMDL
MODEL 2
REMARK VINA RESULT:      -6.7      3.199      4.786
REMARK  4 active torsions:
REMARK  status: ('A' for Active; 'I' for Inactive)
REMARK    1  A    between atoms: O_2  and  C_11 
REMARK    2  A    between atoms: O_4  and  C_15 
REMARK    3  A    between atoms: O_5  and  C_20 
REMARK    4  A    between atoms: C_7  and  C_10 
ROOT
HETATM    1  O   UNK     0      19.953 -28.770 -20.771  0.00  0.00    -0.321 OA
HETATM    2  O   UNK     0      17.624 -27.785 -17.569  0.00  0.00    -0.286 OA
HETATM    3  C   UNK     0      18.974 -27.058 -19.356  0.00  0.00     0.082 A 
HETATM    4  C   UNK     0      18.517 -29.503 -18.955  0.00  0.00     0.048 A 
HETATM    5  C   UNK     0      19.768 -27.455 -20.432  0.00  0.00     0.094 A 
HETATM    6  C   UNK     0      18.305 -28.089 -18.540  0.00  0.00     0.200 A 
HETATM    7  C   UNK     0      18.822 -25.702 -19.056  0.00  0.00     0.085 A 
HETATM    8  C   UNK     0      19.307 -29.720 -20.017  0.00  0.00     0.159 A 
HETATM    9  C   UNK     0      20.414 -26.497 -21.215  0.00  0.00     0.074 A 
HETATM   10  C   UNK     0      19.470 -24.747 -19.841  0.00  0.00     0.074 A 
HETATM   11  C   UNK     0      20.263 -25.142 -20.918  0.00  0.00     0.071 A 
ENDROOT
BRANCH   4  12
HETATM   12  C   UNK     0      17.875 -30.625 -18.251  0.00  0.00    -0.020 A 
HETATM   13  C   UNK     0      16.483 -30.710 -18.189  0.00  0.00     0.015 A 
HETATM   14  C   UNK     0      15.875 -31.774 -17.523  0.00  0.00     0.037 A 
HETATM   15  C   UNK     0      16.658 -32.755 -16.917  0.00  0.00     0.065 A 
HETATM   16  C   UNK     0      18.049 -32.674 -16.977  0.00  0.00     0.037 A 
HETATM   17  C   UNK     0      18.657 -31.610 -17.643  0.00  0.00     0.015 A 
BRANCH  15  18
HETATM   18  O   UNK     0      16.065 -33.794 -16.267  0.00  0.00    -0.361 OA
HETATM   19  H   UNK     0      16.034 -33.595 -15.316  0.00  0.00     0.217 HD
ENDBRANCH  15  18
ENDBRANCH   4  12
BRANCH   7  20
HETATM   20  O   UNK     0      18.059 -25.260 -18.018  0.00  0.00    -0.360 OA
HETATM   21  H   UNK     0      17.770 -24.348 -18.170  0.00  0.00     0.217 HD
ENDBRANCH   7  20
BRANCH  11  22
HETATM   22  O   UNK     0      20.893 -24.205 -21.679  0.00  0.00    -0.361 OA
HETATM   23  H   UNK     0      20.299 -23.935 -22.400  0.00  0.00     0.217 HD
ENDBRANCH  11  22
TORSDOF 4
ENDMDL
MODEL 3
REMARK VINA RESULT:      -6.5     14.593     17.820
REMARK  4 active torsions:
REMARK  status: ('A' for Active; 'I' for Inactive)
REMARK    1  A    between atoms: O_2  and  C_11 
REMARK    2  A    between atoms: O_4  and  C_15 
REMARK    3  A    between atoms: O_5  and  C_20 
REMARK    4  A    between atoms: C_7  and  C_10 
ROOT
HETATM    1  O   UNK     0      33.518 -18.181 -27.981  0.00  0.00    -0.321 OA
HETATM    2  O   UNK     0      32.540 -20.270 -31.347  0.00  0.00    -0.286 OA
HETATM    3  C   UNK     0      34.228 -19.445 -29.928  0.00  0.00     0.082 A 
HETATM    4  C   UNK     0      31.786 -19.081 -29.426  0.00  0.00     0.048 A 
HETATM    5  C   UNK     0      34.503 -18.713 -28.773  0.00  0.00     0.094 A 
HETATM    6  C   UNK     0      32.823 -19.658 -30.325  0.00  0.00     0.200 A 
HETATM    7  C   UNK     0      35.273 -19.963 -30.697  0.00  0.00     0.085 A 
HETATM    8  C   UNK     0      32.213 -18.405 -28.349  0.00  0.00     0.159 A 
HETATM    9  C   UNK     0      35.824 -18.495 -28.381  0.00  0.00     0.074 A 
HETATM   10  C   UNK     0      36.593 -19.743 -30.303  0.00  0.00     0.074 A 
HETATM   11  C   UNK     0      36.869 -19.012 -29.148  0.00  0.00     0.071 A 
ENDROOT
BRANCH   4  12
HETATM   12  C   UNK     0      30.347 -19.255 -29.685  0.00  0.00    -0.020 A 
HETATM   13  C   UNK     0      29.601 -18.205 -30.226  0.00  0.00     0.015 A 
HETATM   14  C   UNK     0      28.239 -18.370 -30.473  0.00  0.00     0.037 A 
HETATM   15  C   UNK     0      27.619 -19.584 -30.178  0.00  0.00     0.065 A 
HETATM   16  C   UNK     0      28.361 -20.634 -29.639  0.00  0.00     0.037 A 
HETATM   17  C   UNK     0      29.724 -20.469 -29.392  0.00  0.00     0.015 A 
BRANCH  15  18
HETATM   18  O   UNK     0      26.288 -19.745 -30.419  0.00  0.00    -0.361 OA
HETATM   19  H   UNK     0      25.898 -20.268 -29.699  0.00  0.00     0.217 HD
ENDBRANCH  15  18
ENDBRANCH   4  12
BRANCH   7  20
HETATM   20  O   UNK     0      35.061 -20.684 -31.833  0.00  0.00    -0.360 OA
HETATM   21  H   UNK     0      35.149 -21.634 -31.656  0.00  0.00     0.217 HD
ENDBRANCH   7  20
BRANCH  11  22
HETATM   22  O   UNK     0      38.159 -18.800 -28.769  0.00  0.00    -0.361 OA
HETATM   23  H   UNK     0      38.275 -17.858 -28.556  0.00  0.00     0.217 HD
ENDBRANCH  11  22
TORSDOF 4
ENDMDL
MODEL 4
REMARK VINA RESULT:      -6.5     15.026     18.725
REMARK  4 active torsions:
REMARK  status: ('A' for Active; 'I' for Inactive)
REMARK    1  A    between atoms: O_2  and  C_11 
REMARK    2  A    between atoms: O_4  and  C_15 
REMARK    3  A    between atoms: O_5  and  C_20 
REMARK    4  A    between atoms: C_7  and  C_10 
ROOT
HETATM    1  O   UNK     0      31.009 -21.014 -29.479  0.00  0.00    -0.321 OA
HETATM    2  O   UNK     0      32.427 -17.288 -30.345  0.00  0.00    -0.286 OA
HETATM    3  C   UNK     0      30.570 -18.720 -30.137  0.00  0.00     0.082 A 
HETATM    4  C   UNK     0      32.910 -19.513 -29.648  0.00  0.00     0.048 A 
HETATM    5  C   UNK     0      30.144 -20.014 -29.841  0.00  0.00     0.094 A 
HETATM    6  C   UNK     0      32.008 -18.404 -30.064  0.00  0.00     0.200 A 
HETATM    7  C   UNK     0      29.642 -17.740 -30.502  0.00  0.00     0.085 A 
HETATM    8  C   UNK     0      32.345 -20.703 -29.393  0.00  0.00     0.159 A 
HETATM    9  C   UNK     0      28.788 -20.337 -29.907  0.00  0.00     0.074 A 
HETATM   10  C   UNK     0      28.287 -18.066 -30.568  0.00  0.00     0.074 A 
HETATM   11  C   UNK     0      27.860 -19.360 -30.271  0.00  0.00     0.071 A 
ENDROOT
BRANCH   4  12
HETATM   12  C   UNK     0      34.362 -19.321 -29.497  0.00  0.00    -0.020 A 
HETATM   13  C   UNK     0      34.863 -18.565 -28.436  0.00  0.00     0.015 A 
HETATM   14  C   UNK     0      36.238 -18.385 -28.293  0.00  0.00     0.037 A 
HETATM   15  C   UNK     0      37.116 -18.959 -29.211  0.00  0.00     0.065 A 
HETATM   16  C   UNK     0      36.619 -19.716 -30.272  0.00  0.00     0.037 A 
HETATM   17  C   UNK     0      35.243 -19.896 -30.415  0.00  0.00     0.015 A 
BRANCH  15  18
HETATM   18  O   UNK     0      38.459 -18.784 -29.070  0.00  0.00    -0.361 OA
HETATM   19  H   UNK     0      38.720 -17.969 -29.533  0.00  0.00     0.217 HD
ENDBRANCH  15  18
ENDBRANCH   4  12
BRANCH   7  20
HETATM   20  O   UNK     0      30.004 -16.462 -30.800  0.00  0.00    -0.360 OA
HETATM   21  H   UNK     0      30.886 -16.265 -30.450  0.00  0.00     0.217 HD
ENDBRANCH   7  20
BRANCH  11  22
HETATM   22  O   UNK     0      26.536 -19.672 -30.338  0.00  0.00    -0.361 OA
HETATM   23  H   UNK     0      26.379 -20.209 -31.133  0.00  0.00     0.217 HD
ENDBRANCH  11  22
TORSDOF 4
ENDMDL
MODEL 5
REMARK VINA RESULT:      -6.4     27.911     29.836
REMARK  4 active torsions:
REMARK  status: ('A' for Active; 'I' for Inactive)
REMARK    1  A    between atoms: O_2  and  C_11 
REMARK    2  A    between atoms: O_4  and  C_15 
REMARK    3  A    between atoms: O_5  and  C_20 
REMARK    4  A    between atoms: C_7  and  C_10 
ROOT
HETATM    1  O   UNK     0      47.567 -16.149 -20.124  0.00  0.00    -0.321 OA
HETATM    2  O   UNK     0      48.195 -19.854 -18.534  0.00  0.00    -0.286 OA
HETATM    3  C   UNK     0      47.930 -17.543 -18.170  0.00  0.00     0.082 A 
HETATM    4  C   UNK     0      47.792 -18.541 -20.479  0.00  0.00     0.048 A 
HETATM    5  C   UNK     0      47.723 -16.301 -18.770  0.00  0.00     0.094 A 
HETATM    6  C   UNK     0      47.987 -18.749 -19.018  0.00  0.00     0.200 A 
HETATM    7  C   UNK     0      48.084 -17.638 -16.784  0.00  0.00     0.085 A 
HETATM    8  C   UNK     0      47.600 -17.282 -20.901  0.00  0.00     0.159 A 
HETATM    9  C   UNK     0      47.671 -15.147 -17.988  0.00  0.00     0.074 A 
HETATM   10  C   UNK     0      48.031 -16.482 -16.005  0.00  0.00     0.074 A 
HETATM   11  C   UNK     0      47.824 -15.239 -16.604  0.00  0.00     0.071 A 
ENDROOT
BRANCH   4  12
HETATM   12  C   UNK     0      47.787 -19.663 -21.432  0.00  0.00    -0.020 A 
HETATM   13  C   UNK     0      48.952 -20.003 -22.121  0.00  0.00     0.015 A 
HETATM   14  C   UNK     0      48.948 -21.067 -23.023  0.00  0.00     0.037 A 
HETATM   15  C   UNK     0      47.777 -21.793 -23.237  0.00  0.00     0.065 A 
HETATM   16  C   UNK     0      46.611 -21.457 -22.550  0.00  0.00     0.037 A 
HETATM   17  C   UNK     0      46.616 -20.393 -21.648  0.00  0.00     0.015 A 
BRANCH  15  18
HETATM   18  O   UNK     0      47.773 -22.832 -24.117  0.00  0.00    -0.361 OA
HETATM   19  H   UNK     0      47.964 -22.492 -25.008  0.00  0.00     0.217 HD
ENDBRANCH  15  18
ENDBRANCH   4  12
BRANCH   7  20
HETATM   20  O   UNK     0      48.287 -18.825 -16.148  0.00  0.00    -0.360 OA
HETATM   21  H   UNK     0      47.466 -19.139 -15.741  0.00  0.00     0.217 HD
ENDBRANCH   7  20
BRANCH  11  22
HETATM   22  O   UNK     0      47.774 -14.115 -15.838  0.00  0.00    -0.361 OA
HETATM   23  H   UNK     0      47.341 -13.407 -16.345  0.00  0.00     0.217 HD
ENDBRANCH  11  22
TORSDOF 4
ENDMDL
MODEL 6
REMARK VINA RESULT:      -6.4     14.343     18.081
REMARK  4 active torsions:
REMARK  status: ('A' for Active; 'I' for Inactive)
REMARK    1  A    between atoms: O_2  and  C_11 
REMARK    2  A    between atoms: O_4  and  C_15 
REMARK    3  A    between atoms: O_5  and  C_20 
REMARK    4  A    between atoms: C_7  and  C_10 
ROOT
HETATM    1  O   UNK     0      30.582 -17.866 -30.428  0.00  0.00    -0.321 OA
HETATM    2  O   UNK     0      32.214 -21.336 -29.034  0.00  0.00    -0.286 OA
HETATM    3  C   UNK     0      30.292 -20.178 -29.749  0.00  0.00     0.082 A 
HETATM    4  C   UNK     0      32.563 -19.088 -29.736  0.00  0.00     0.048 A 
HETATM    5  C   UNK     0      29.788 -18.964 -30.214  0.00  0.00     0.094 A 
HETATM    6  C   UNK     0      31.736 -20.297 -29.470  0.00  0.00     0.200 A 
HETATM    7  C   UNK     0      29.436 -21.264 -29.548  0.00  0.00     0.085 A 
HETATM    8  C   UNK     0      31.928 -17.995 -30.185  0.00  0.00     0.159 A 
HETATM    9  C   UNK     0      28.425 -18.828 -30.480  0.00  0.00     0.074 A 
HETATM   10  C   UNK     0      28.073 -21.125 -29.815  0.00  0.00     0.074 A 
HETATM   11  C   UNK     0      27.569 -19.911 -30.280  0.00  0.00     0.071 A 
ENDROOT
BRANCH   4  12
HETATM   12  C   UNK     0      34.022 -19.083 -29.537  0.00  0.00    -0.020 A 
HETATM   13  C   UNK     0      34.578 -18.414 -28.445  0.00  0.00     0.015 A 
HETATM   14  C   UNK     0      35.960 -18.411 -28.256  0.00  0.00     0.037 A 
HETATM   15  C   UNK     0      36.788 -19.075 -29.160  0.00  0.00     0.065 A 
HETATM   16  C   UNK     0      36.235 -19.745 -30.251  0.00  0.00     0.037 A 
HETATM   17  C   UNK     0      34.854 -19.748 -30.440  0.00  0.00     0.015 A 
BRANCH  15  18
HETATM   18  O   UNK     0      38.137 -19.072 -28.974  0.00  0.00    -0.361 OA
HETATM   19  H   UNK     0      38.469 -19.983 -29.054  0.00  0.00     0.217 HD
ENDBRANCH  15  18
ENDBRANCH   4  12
BRANCH   7  20
HETATM   20  O   UNK     0      29.875 -22.472 -29.097  0.00  0.00    -0.360 OA
HETATM   21  H   UNK     0      30.724 -22.702 -29.506  0.00  0.00     0.217 HD
ENDBRANCH   7  20
BRANCH  11  22
HETATM   22  O   UNK     0      26.238 -19.781 -30.538  0.00  0.00    -0.361 OA
HETATM   23  H   UNK     0      25.912 -18.970 -30.111  0.00  0.00     0.217 HD
ENDBRANCH  11  22
TORSDOF 4
ENDMDL
MODEL 7
REMARK VINA RESULT:      -6.3     13.379     16.235
REMARK  4 active torsions:
REMARK  status: ('A' for Active; 'I' for Inactive)
REMARK    1  A    between atoms: O_2  and  C_11 
REMARK    2  A    between atoms: O_4  and  C_15 
REMARK    3  A    between atoms: O_5  and  C_20 
REMARK    4  A    between atoms: C_7  and  C_10 
ROOT
HETATM    1  O   UNK     0      27.448 -18.776 -30.065  0.00  0.00    -0.321 OA
HETATM    2  O   UNK     0      30.316 -21.649 -29.651  0.00  0.00    -0.286 OA
HETATM    3  C   UNK     0      28.074 -21.120 -30.136  0.00  0.00     0.082 A 
HETATM    4  C   UNK     0      29.769 -19.332 -29.615  0.00  0.00     0.048 A 
HETATM    5  C   UNK     0      27.133 -20.097 -30.254  0.00  0.00     0.094 A 
HETATM    6  C   UNK     0      29.466 -20.779 -29.792  0.00  0.00     0.200 A 
HETATM    7  C   UNK     0      27.695 -22.450 -30.339  0.00  0.00     0.085 A 
HETATM    8  C   UNK     0      28.753 -18.468 -29.765  0.00  0.00     0.159 A 
HETATM    9  C   UNK     0      25.809 -20.398 -30.574  0.00  0.00     0.074 A 
HETATM   10  C   UNK     0      26.370 -22.748 -30.659  0.00  0.00     0.074 A 
HETATM   11  C   UNK     0      25.429 -21.725 -30.777  0.00  0.00     0.071 A 
ENDROOT
BRANCH   4  12
HETATM   12  C   UNK     0      31.127 -18.852 -29.309  0.00  0.00    -0.020 A 
HETATM   13  C   UNK     0      31.525 -18.676 -27.983  0.00  0.00     0.015 A 
HETATM   14  C   UNK     0      32.811 -18.222 -27.692  0.00  0.00     0.037 A 
HETATM   15  C   UNK     0      33.702 -17.942 -28.728  0.00  0.00     0.065 A 
HETATM   16  C   UNK     0      33.307 -18.118 -30.054  0.00  0.00     0.037 A 
HETATM   17  C   UNK     0      32.021 -18.571 -30.344  0.00  0.00     0.015 A 
BRANCH  15  18
HETATM   18  O   UNK     0      34.958 -17.500 -28.444  0.00  0.00    -0.361 OA
HETATM   19  H   UNK     0      35.438 -17.358 -29.278  0.00  0.00     0.217 HD
ENDBRANCH  15  18
ENDBRANCH   4  12
BRANCH   7  20
HETATM   20  O   UNK     0      28.573 -23.487 -30.237  0.00  0.00    -0.360 OA
HETATM   21  H   UNK     0      29.055 -23.445 -29.398  0.00  0.00     0.217 HD
ENDBRANCH   7  20
BRANCH  11  22
HETATM   22  O   UNK     0      24.137 -22.022 -31.089  0.00  0.00    -0.361 OA
HETATM   23  H   UNK     0      24.130 -22.658 -31.825  0.00  0.00     0.217 HD
ENDBRANCH  11  22
TORSDOF 4
ENDMDL
MODEL 8
REMARK VINA RESULT:      -6.3      1.938      3.084
REMARK  4 active torsions:
REMARK  status: ('A' for Active; 'I' for Inactive)
REMARK    1  A    between atoms: O_2  and  C_11 
REMARK    2  A    between atoms: O_4  and  C_15 
REMARK    3  A    between atoms: O_5  and  C_20 
REMARK    4  A    between atoms: C_7  and  C_10 
ROOT
HETATM    1  O   UNK     0      21.524 -27.513 -23.657  0.00  0.00    -0.321 OA
HETATM    2  O   UNK     0      22.950 -26.169 -20.078  0.00  0.00    -0.286 OA
HETATM    3  C   UNK     0      23.415 -26.869 -22.278  0.00  0.00     0.082 A 
HETATM    4  C   UNK     0      21.056 -26.741 -21.402  0.00  0.00     0.048 A 
HETATM    5  C   UNK     0      22.871 -27.335 -23.475  0.00  0.00     0.094 A 
HETATM    6  C   UNK     0      22.512 -26.554 -21.155  0.00  0.00     0.200 A 
HETATM    7  C   UNK     0      24.797 -26.709 -22.148  0.00  0.00     0.085 A 
HETATM    8  C   UNK     0      20.691 -27.195 -22.611  0.00  0.00     0.159 A 
HETATM    9  C   UNK     0      23.707 -27.645 -24.549  0.00  0.00     0.074 A 
HETATM   10  C   UNK     0      25.630 -27.019 -23.224  0.00  0.00     0.074 A 
HETATM   11  C   UNK     0      25.087 -27.485 -24.421  0.00  0.00     0.071 A 
ENDROOT
BRANCH   4  12
HETATM   12  C   UNK     0      20.045 -26.426 -20.380  0.00  0.00    -0.020 A 
HETATM   13  C   UNK     0      19.579 -27.426 -19.524  0.00  0.00     0.015 A 
HETATM   14  C   UNK     0      18.622 -27.127 -18.554  0.00  0.00     0.037 A 
HETATM   15  C   UNK     0      18.128 -25.828 -18.439  0.00  0.00     0.065 A 
HETATM   16  C   UNK     0      18.593 -24.827 -19.292  0.00  0.00     0.037 A 
HETATM   17  C   UNK     0      19.550 -25.126 -20.262  0.00  0.00     0.015 A 
BRANCH  15  18
HETATM   18  O   UNK     0      17.195 -25.536 -17.492  0.00  0.00    -0.361 OA
HETATM   19  H   UNK     0      16.758 -26.360 -17.216  0.00  0.00     0.217 HD
ENDBRANCH  15  18
ENDBRANCH   4  12
BRANCH   7  20
HETATM   20  O   UNK     0      25.379 -26.256 -21.003  0.00  0.00    -0.360 OA
HETATM   21  H   UNK     0      25.731 -26.995 -20.484  0.00  0.00     0.217 HD
ENDBRANCH   7  20
BRANCH  11  22
HETATM   22  O   UNK     0      25.905 -27.786 -25.467  0.00  0.00    -0.361 OA
HETATM   23  H   UNK     0      26.536 -28.471 -25.186  0.00  0.00     0.217 HD
ENDBRANCH  11  22
TORSDOF 4
ENDMDL
MODEL 9
REMARK VINA RESULT:      -6.2     13.908     17.029
REMARK  4 active torsions:
REMARK  status: ('A' for Active; 'I' for Inactive)
REMARK    1  A    between atoms: O_2  and  C_11 
REMARK    2  A    between atoms: O_4  and  C_15 
REMARK    3  A    between atoms: O_5  and  C_20 
REMARK    4  A    between atoms: C_7  and  C_10 
ROOT
HETATM    1  O   UNK     0      32.946 -20.649 -31.152  0.00  0.00    -0.321 OA
HETATM    2  O   UNK     0      30.765 -18.607 -28.375  0.00  0.00    -0.286 OA
HETATM    3  C   UNK     0      32.883 -19.133 -29.258  0.00  0.00     0.082 A 
HETATM    4  C   UNK     0      30.766 -20.058 -30.262  0.00  0.00     0.048 A 
HETATM    5  C   UNK     0      33.577 -19.861 -30.224  0.00  0.00     0.094 A 
HETATM    6  C   UNK     0      31.410 -19.208 -29.224  0.00  0.00     0.200 A 
HETATM    7  C   UNK     0      33.578 -18.346 -28.336  0.00  0.00     0.085 A 
HETATM    8  C   UNK     0      31.573 -20.695 -31.124  0.00  0.00     0.159 A 
HETATM    9  C   UNK     0      34.970 -19.808 -30.272  0.00  0.00     0.074 A 
HETATM   10  C   UNK     0      34.972 -18.296 -28.387  0.00  0.00     0.074 A 
HETATM   11  C   UNK     0      35.667 -19.024 -29.352  0.00  0.00     0.071 A 
ENDROOT
BRANCH   4  12
HETATM   12  C   UNK     0      29.303 -20.189 -30.364  0.00  0.00    -0.020 A 
HETATM   13  C   UNK     0      28.544 -19.156 -30.916  0.00  0.00     0.015 A 
HETATM   14  C   UNK     0      27.158 -19.281 -31.014  0.00  0.00     0.037 A 
HETATM   15  C   UNK     0      26.528 -20.438 -30.558  0.00  0.00     0.065 A 
HETATM   16  C   UNK     0      27.284 -21.472 -30.006  0.00  0.00     0.037 A 
HETATM   17  C   UNK     0      28.670 -21.348 -29.908  0.00  0.00     0.015 A 
BRANCH  15  18
HETATM   18  O   UNK     0      25.176 -20.560 -30.654  0.00  0.00    -0.361 OA
HETATM   19  H   UNK     0      24.780 -20.372 -29.786  0.00  0.00     0.217 HD
ENDBRANCH  15  18
ENDBRANCH   4  12
BRANCH   7  20
HETATM   20  O   UNK     0      32.950 -17.615 -27.374  0.00  0.00    -0.360 OA
HETATM   21  H   UNK     0      32.245 -18.133 -26.956  0.00  0.00     0.217 HD
ENDBRANCH   7  20
BRANCH  11  22
HETATM   22  O   UNK     0      37.026 -18.970 -29.396  0.00  0.00    -0.361 OA
HETATM   23  H   UNK     0      37.295 -18.134 -29.813  0.00  0.00     0.217 HD
ENDBRANCH  11  22
TORSDOF 4
ENDMDL
MODEL 10
REMARK VINA RESULT:      -6.1      7.944     10.621
REMARK  4 active torsions:
REMARK  status: ('A' for Active; 'I' for Inactive)
REMARK    1  A    between atoms: O_2  and  C_11 
REMARK    2  A    between atoms: O_4  and  C_15 
REMARK    3  A    between atoms: O_5  and  C_20 
REMARK    4  A    between atoms: C_7  and  C_10 
ROOT
HETATM    1  O   UNK     0      27.454 -31.424 -21.524  0.00  0.00    -0.321 OA
HETATM    2  O   UNK     0      29.754 -28.455 -23.116  0.00  0.00    -0.286 OA
HETATM    3  C   UNK     0      29.634 -30.390 -21.779  0.00  0.00     0.082 A 
HETATM    4  C   UNK     0      27.602 -29.458 -22.940  0.00  0.00     0.048 A 
HETATM    5  C   UNK     0      28.797 -31.374 -21.254  0.00  0.00     0.094 A 
HETATM    6  C   UNK     0      29.060 -29.354 -22.658  0.00  0.00     0.200 A 
HETATM    7  C   UNK     0      30.997 -30.387 -21.469  0.00  0.00     0.085 A 
HETATM    8  C   UNK     0      26.934 -30.467 -22.361  0.00  0.00     0.159 A 
HETATM    9  C   UNK     0      29.318 -32.361 -20.417  0.00  0.00     0.074 A 
HETATM   10  C   UNK     0      31.514 -31.375 -20.632  0.00  0.00     0.074 A 
HETATM   11  C   UNK     0      30.678 -32.360 -20.106  0.00  0.00     0.071 A 
ENDROOT
BRANCH   4  12
HETATM   12  C   UNK     0      26.912 -28.512 -23.833  0.00  0.00    -0.020 A 
HETATM   13  C   UNK     0      25.995 -27.597 -23.310  0.00  0.00     0.015 A 
HETATM   14  C   UNK     0      25.342 -26.700 -24.155  0.00  0.00     0.037 A 
HETATM   15  C   UNK     0      25.603 -26.717 -25.525  0.00  0.00     0.065 A 
HETATM   16  C   UNK     0      26.519 -27.629 -26.049  0.00  0.00     0.037 A 
HETATM   17  C   UNK     0      27.172 -28.526 -25.204  0.00  0.00     0.015 A 
BRANCH  15  18
HETATM   18  O   UNK     0      24.966 -25.841 -26.349  0.00  0.00    -0.361 OA
HETATM   19  H   UNK     0      25.628 -25.272 -26.778  0.00  0.00     0.217 HD
ENDBRANCH  15  18
ENDBRANCH   4  12
BRANCH   7  20
HETATM   20  O   UNK     0      31.858 -29.450 -21.955  0.00  0.00    -0.360 OA
HETATM   21  H   UNK     0      32.169 -29.698 -22.839  0.00  0.00     0.217 HD
ENDBRANCH   7  20
BRANCH  11  22
HETATM   22  O   UNK     0      31.189 -33.322 -19.289  0.00  0.00    -0.361 OA
HETATM   23  H   UNK     0      30.568 -34.070 -19.256  0.00  0.00     0.217 HD
ENDBRANCH  11  22
TORSDOF 4
ENDMDL
MODEL 11
REMARK VINA RESULT:      -6.1     27.913     30.406
REMARK  4 active torsions:
REMARK  status: ('A' for Active; 'I' for Inactive)
REMARK    1  A    between atoms: O_2  and  C_11 
REMARK    2  A    between atoms: O_4  and  C_15 
REMARK    3  A    between atoms: O_5  and  C_20 
REMARK    4  A    between atoms: C_7  and  C_10 
ROOT
HETATM    1  O   UNK     0      47.588 -17.333 -19.751  0.00  0.00    -0.321 OA
HETATM    2  O   UNK     0      50.069 -20.571 -19.672  0.00  0.00    -0.286 OA
HETATM    3  C   UNK     0      49.367 -18.567 -18.654  0.00  0.00     0.082 A 
HETATM    4  C   UNK     0      48.288 -19.427 -20.762  0.00  0.00     0.048 A 
HETATM    5  C   UNK     0      48.501 -17.477 -18.739  0.00  0.00     0.094 A 
HETATM    6  C   UNK     0      49.307 -19.613 -19.693  0.00  0.00     0.200 A 
HETATM    7  C   UNK     0      50.279 -18.661 -17.600  0.00  0.00     0.085 A 
HETATM    8  C   UNK     0      47.527 -18.324 -20.701  0.00  0.00     0.159 A 
HETATM    9  C   UNK     0      48.543 -16.474 -17.770  0.00  0.00     0.074 A 
HETATM   10  C   UNK     0      50.319 -17.657 -16.632  0.00  0.00     0.074 A 
HETATM   11  C   UNK     0      49.453 -16.566 -16.716  0.00  0.00     0.071 A 
ENDROOT
BRANCH   4  12
HETATM   12  C   UNK     0      48.097 -20.415 -21.837  0.00  0.00    -0.020 A 
HETATM   13  C   UNK     0      46.934 -21.186 -21.881  0.00  0.00     0.015 A 
HETATM   14  C   UNK     0      46.753 -22.122 -22.899  0.00  0.00     0.037 A 
HETATM   15  C   UNK     0      47.735 -22.289 -23.875  0.00  0.00     0.065 A 
HETATM   16  C   UNK     0      48.897 -21.519 -23.834  0.00  0.00     0.037 A 
HETATM   17  C   UNK     0      49.078 -20.584 -22.815  0.00  0.00     0.015 A 
BRANCH  15  18
HETATM   18  O   UNK     0      47.557 -23.201 -24.870  0.00  0.00    -0.361 OA
HETATM   19  H   UNK     0      48.354 -23.753 -24.937  0.00  0.00     0.217 HD
ENDBRANCH  15  18
ENDBRANCH   4  12
BRANCH   7  20
HETATM   20  O   UNK     0      51.145 -19.704 -17.469  0.00  0.00    -0.360 OA
HETATM   21  H   UNK     0      51.909 -19.590 -18.055  0.00  0.00     0.217 HD
ENDBRANCH   7  20
BRANCH  11  22
HETATM   22  O   UNK     0      49.498 -15.589 -15.769  0.00  0.00    -0.361 OA
HETATM   23  H   UNK     0      50.371 -15.605 -15.340  0.00  0.00     0.217 HD
ENDBRANCH  11  22
TORSDOF 4
ENDMDL
MODEL 12
REMARK VINA RESULT:      -6.1     15.384     18.932
REMARK  4 active torsions:
REMARK  status: ('A' for Active; 'I' for Inactive)
REMARK    1  A    between atoms: O_2  and  C_11 
REMARK    2  A    between atoms: O_4  and  C_15 
REMARK    3  A    between atoms: O_5  and  C_20 
REMARK    4  A    between atoms: C_7  and  C_10 
ROOT
HETATM    1  O   UNK     0      34.865 -20.372 -30.342  0.00  0.00    -0.321 OA
HETATM    2  O   UNK     0      33.252 -16.912 -28.903  0.00  0.00    -0.286 OA
HETATM    3  C   UNK     0      35.186 -18.169 -29.375  0.00  0.00     0.082 A 
HETATM    4  C   UNK     0      32.882 -19.044 -29.896  0.00  0.00     0.048 A 
HETATM    5  C   UNK     0      35.680 -19.376 -29.869  0.00  0.00     0.094 A 
HETATM    6  C   UNK     0      33.728 -17.945 -29.354  0.00  0.00     0.200 A 
HETATM    7  C   UNK     0      36.065 -17.189 -28.905  0.00  0.00     0.085 A 
HETATM    8  C   UNK     0      33.510 -20.144 -30.337  0.00  0.00     0.159 A 
HETATM    9  C   UNK     0      37.056 -19.611 -29.894  0.00  0.00     0.074 A 
HETATM   10  C   UNK     0      37.439 -17.427 -28.931  0.00  0.00     0.074 A 
HETATM   11  C   UNK     0      37.934 -18.634 -29.424  0.00  0.00     0.071 A 
ENDROOT
BRANCH   4  12
HETATM   12  C   UNK     0      31.415 -18.933 -29.969  0.00  0.00    -0.020 A 
HETATM   13  C   UNK     0      30.804 -18.503 -31.148  0.00  0.00     0.015 A 
HETATM   14  C   UNK     0      29.415 -18.400 -31.218  0.00  0.00     0.037 A 
HETATM   15  C   UNK     0      28.635 -18.725 -30.109  0.00  0.00     0.065 A 
HETATM   16  C   UNK     0      29.243 -19.156 -28.931  0.00  0.00     0.037 A 
HETATM   17  C   UNK     0      30.632 -19.259 -28.861  0.00  0.00     0.015 A 
BRANCH  15  18
HETATM   18  O   UNK     0      27.279 -18.624 -30.178  0.00  0.00    -0.361 OA
HETATM   19  H   UNK     0      27.011 -18.606 -31.113  0.00  0.00     0.217 HD
ENDBRANCH  15  18
ENDBRANCH   4  12
BRANCH   7  20
HETATM   20  O   UNK     0      35.636 -15.993 -28.414  0.00  0.00    -0.360 OA
HETATM   21  H   UNK     0      34.808 -16.103 -27.921  0.00  0.00     0.217 HD
ENDBRANCH   7  20
BRANCH  11  22
HETATM   22  O   UNK     0      39.277 -18.860 -29.447  0.00  0.00    -0.361 OA
HETATM   23  H   UNK     0      39.622 -18.794 -28.540  0.00  0.00     0.217 HD
ENDBRANCH  11  22
TORSDOF 4
ENDMDL
MODEL 13
REMARK VINA RESULT:      -6.1      2.923      3.960
REMARK  4 active torsions:
REMARK  status: ('A' for Active; 'I' for Inactive)
REMARK    1  A    between atoms: O_2  and  C_11 
REMARK    2  A    between atoms: O_4  and  C_15 
REMARK    3  A    between atoms: O_5  and  C_20 
REMARK    4  A    between atoms: C_7  and  C_10 
ROOT
HETATM    1  O   UNK     0      18.992 -26.703 -18.623  0.00  0.00    -0.321 OA
HETATM    2  O   UNK     0      19.144 -30.151 -20.800  0.00  0.00    -0.286 OA
HETATM    3  C   UNK     0      19.703 -27.870 -20.630  0.00  0.00     0.082 A 
HETATM    4  C   UNK     0      18.467 -29.068 -18.791  0.00  0.00     0.048 A 
HETATM    5  C   UNK     0      19.611 -26.719 -19.847  0.00  0.00     0.094 A 
HETATM    6  C   UNK     0      19.111 -29.126 -20.132  0.00  0.00     0.200 A 
HETATM    7  C   UNK     0      20.345 -27.827 -21.870  0.00  0.00     0.085 A 
HETATM    8  C   UNK     0      18.463 -27.884 -18.160  0.00  0.00     0.159 A 
HETATM    9  C   UNK     0      20.160 -25.519 -20.300  0.00  0.00     0.074 A 
HETATM   10  C   UNK     0      20.893 -26.626 -22.321  0.00  0.00     0.074 A 
HETATM   11  C   UNK     0      20.801 -25.474 -21.538  0.00  0.00     0.071 A 
ENDROOT
BRANCH   4  12
HETATM   12  C   UNK     0      17.873 -30.259 -18.160  0.00  0.00    -0.020 A 
HETATM   13  C   UNK     0      16.487 -30.361 -18.023  0.00  0.00     0.015 A 
HETATM   14  C   UNK     0      15.924 -31.489 -17.427  0.00  0.00     0.037 A 
HETATM   15  C   UNK     0      16.745 -32.517 -16.966  0.00  0.00     0.065 A 
HETATM   16  C   UNK     0      18.130 -32.418 -17.102  0.00  0.00     0.037 A 
HETATM   17  C   UNK     0      18.693 -31.290 -17.698  0.00  0.00     0.015 A 
BRANCH  15  18
HETATM   18  O   UNK     0      16.195 -33.618 -16.385  0.00  0.00    -0.361 OA
HETATM   19  H   UNK     0      15.929 -34.243 -17.081  0.00  0.00     0.217 HD
ENDBRANCH  15  18
ENDBRANCH   4  12
BRANCH   7  20
HETATM   20  O   UNK     0      20.464 -28.921 -22.673  0.00  0.00    -0.360 OA
HETATM   21  H   UNK     0      20.318 -28.681 -23.601  0.00  0.00     0.217 HD
ENDBRANCH   7  20
BRANCH  11  22
HETATM   22  O   UNK     0      21.338 -24.305 -21.984  0.00  0.00    -0.361 OA
HETATM   23  H   UNK     0      20.717 -23.893 -22.610  0.00  0.00     0.217 HD
ENDBRANCH  11  22
TORSDOF 4
ENDMDL
MODEL 14
REMARK VINA RESULT:      -6.1     13.183     16.566
REMARK  4 active torsions:
REMARK  status: ('A' for Active; 'I' for Inactive)
REMARK    1  A    between atoms: O_2  and  C_11 
REMARK    2  A    between atoms: O_4  and  C_15 
REMARK    3  A    between atoms: O_5  and  C_20 
REMARK    4  A    between atoms: C_7  and  C_10 
ROOT
HETATM    1  O   UNK     0      30.045 -22.833 -29.683  0.00  0.00    -0.321 OA
HETATM    2  O   UNK     0      29.392 -18.809 -29.829  0.00  0.00    -0.286 OA
HETATM    3  C   UNK     0      28.503 -20.984 -29.982  0.00  0.00     0.082 A 
HETATM    4  C   UNK     0      30.939 -20.585 -29.478  0.00  0.00     0.048 A 
HETATM    5  C   UNK     0      28.787 -22.348 -29.931  0.00  0.00     0.094 A 
HETATM    6  C   UNK     0      29.593 -20.015 -29.764  0.00  0.00     0.200 A 
HETATM    7  C   UNK     0      27.201 -20.546 -30.239  0.00  0.00     0.085 A 
HETATM    8  C   UNK     0      31.049 -21.922 -29.461  0.00  0.00     0.159 A 
HETATM    9  C   UNK     0      27.772 -23.282 -30.138  0.00  0.00     0.074 A 
HETATM   10  C   UNK     0      26.188 -21.482 -30.446  0.00  0.00     0.074 A 
HETATM   11  C   UNK     0      26.471 -22.847 -30.396  0.00  0.00     0.071 A 
ENDROOT
BRANCH   4  12
HETATM   12  C   UNK     0      32.105 -19.729 -29.204  0.00  0.00    -0.020 A 
HETATM   13  C   UNK     0      32.070 -18.814 -28.150  0.00  0.00     0.015 A 
HETATM   14  C   UNK     0      33.175 -18.004 -27.889  0.00  0.00     0.037 A 
HETATM   15  C   UNK     0      34.317 -18.107 -28.683  0.00  0.00     0.065 A 
HETATM   16  C   UNK     0      34.355 -19.021 -29.736  0.00  0.00     0.037 A 
HETATM   17  C   UNK     0      33.250 -19.831 -29.996  0.00  0.00     0.015 A 
BRANCH  15  18
HETATM   18  O   UNK     0      35.396 -17.317 -28.428  0.00  0.00    -0.361 OA
HETATM   19  H   UNK     0      35.205 -16.414 -28.734  0.00  0.00     0.217 HD
ENDBRANCH  15  18
ENDBRANCH   4  12
BRANCH   7  20
HETATM   20  O   UNK     0      26.868 -19.226 -30.299  0.00  0.00    -0.360 OA
HETATM   21  H   UNK     0      27.195 -18.828 -31.120  0.00  0.00     0.217 HD
ENDBRANCH   7  20
BRANCH  11  22
HETATM   22  O   UNK     0      25.478 -23.756 -30.599  0.00  0.00    -0.361 OA
HETATM   23  H   UNK     0      25.046 -23.946 -29.749  0.00  0.00     0.217 HD
ENDBRANCH  11  22
TORSDOF 4
ENDMDL
MODEL 15
REMARK VINA RESULT:      -6.0     35.440     36.772
REMARK  4 active torsions:
REMARK  status: ('A' for Active; 'I' for Inactive)
REMARK    1  A    between atoms: O_2  and  C_11 
REMARK    2  A    between atoms: O_4  and  C_15 
REMARK    3  A    between atoms: O_5  and  C_20 
REMARK    4  A    between atoms: C_7  and  C_10 
ROOT
HETATM    1  O   UNK     0      38.541  -2.221  -5.037  0.00  0.00    -0.321 OA
HETATM    2  O   UNK     0      39.656   0.926  -2.692  0.00  0.00    -0.286 OA
HETATM    3  C   UNK     0      38.987   0.154  -4.813  0.00  0.00     0.082 A 
HETATM    4  C   UNK     0      39.183  -1.403  -2.843  0.00  0.00     0.048 A 
HETATM    5  C   UNK     0      38.622  -0.960  -5.569  0.00  0.00     0.094 A 
HETATM    6  C   UNK     0      39.304  -0.021  -3.383  0.00  0.00     0.200 A 
HETATM    7  C   UNK     0      39.055   1.417  -5.409  0.00  0.00     0.085 A 
HETATM    8  C   UNK     0      38.818  -2.368  -3.699  0.00  0.00     0.159 A 
HETATM    9  C   UNK     0      38.323  -0.818  -6.924  0.00  0.00     0.074 A 
HETATM   10  C   UNK     0      38.755   1.555  -6.765  0.00  0.00     0.074 A 
HETATM   11  C   UNK     0      38.390   0.441  -7.521  0.00  0.00     0.071 A 
ENDROOT
BRANCH   4  12
HETATM   12  C   UNK     0      39.432  -1.708  -1.424  0.00  0.00    -0.020 A 
HETATM   13  C   UNK     0      40.666  -2.227  -1.025  0.00  0.00     0.015 A 
HETATM   14  C   UNK     0      40.902  -2.515   0.318  0.00  0.00     0.037 A 
HETATM   15  C   UNK     0      39.905  -2.288   1.266  0.00  0.00     0.065 A 
HETATM   16  C   UNK     0      38.672  -1.769   0.871  0.00  0.00     0.037 A 
HETATM   17  C   UNK     0      38.436  -1.481  -0.473  0.00  0.00     0.015 A 
BRANCH  15  18
HETATM   18  O   UNK     0      40.136  -2.569   2.578  0.00  0.00    -0.361 OA
HETATM   19  H   UNK     0      40.417  -3.497   2.657  0.00  0.00     0.217 HD
ENDBRANCH  15  18
ENDBRANCH   4  12
BRANCH   7  20
HETATM   20  O   UNK     0      39.404   2.537  -4.718  0.00  0.00    -0.360 OA
HETATM   21  H   UNK     0      39.482   2.344  -3.771  0.00  0.00     0.217 HD
ENDBRANCH   7  20
BRANCH  11  22
HETATM   22  O   UNK     0      38.099   0.583  -8.844  0.00  0.00    -0.361 OA
HETATM   23  H   UNK     0      37.151   0.412  -8.978  0.00  0.00     0.217 HD
ENDBRANCH  11  22
TORSDOF 4
ENDMDL
MODEL 16
REMARK VINA RESULT:      -6.0     35.243     36.530
REMARK  4 active torsions:
REMARK  status: ('A' for Active; 'I' for Inactive)
REMARK    1  A    between atoms: O_2  and  C_11 
REMARK    2  A    between atoms: O_4  and  C_15 
REMARK    3  A    between atoms: O_5  and  C_20 
REMARK    4  A    between atoms: C_7  and  C_10 
ROOT
HETATM    1  O   UNK     0      39.476   1.435  -4.142  0.00  0.00    -0.321 OA
HETATM    2  O   UNK     0      38.662  -2.561  -4.007  0.00  0.00    -0.286 OA
HETATM    3  C   UNK     0      38.741  -0.580  -5.278  0.00  0.00     0.082 A 
HETATM    4  C   UNK     0      39.436  -0.625  -2.857  0.00  0.00     0.048 A 
HETATM    5  C   UNK     0      39.025   0.785  -5.263  0.00  0.00     0.094 A 
HETATM    6  C   UNK     0      38.927  -1.366  -4.044  0.00  0.00     0.200 A 
HETATM    7  C   UNK     0      38.284  -1.190  -6.450  0.00  0.00     0.085 A 
HETATM    8  C   UNK     0      39.665   0.689  -3.004  0.00  0.00     0.159 A 
HETATM    9  C   UNK     0      38.853   1.549  -6.417  0.00  0.00     0.074 A 
HETATM   10  C   UNK     0      38.112  -0.424  -7.603  0.00  0.00     0.074 A 
HETATM   11  C   UNK     0      38.396   0.942  -7.588  0.00  0.00     0.071 A 
ENDROOT
BRANCH   4  12
HETATM   12  C   UNK     0      39.703  -1.297  -1.575  0.00  0.00    -0.020 A 
HETATM   13  C   UNK     0      40.981  -1.782  -1.290  0.00  0.00     0.015 A 
HETATM   14  C   UNK     0      41.233  -2.418  -0.075  0.00  0.00     0.037 A 
HETATM   15  C   UNK     0      40.208  -2.570   0.858  0.00  0.00     0.065 A 
HETATM   16  C   UNK     0      38.931  -2.086   0.577  0.00  0.00     0.037 A 
HETATM   17  C   UNK     0      38.679  -1.451  -0.639  0.00  0.00     0.015 A 
BRANCH  15  18
HETATM   18  O   UNK     0      40.456  -3.190   2.045  0.00  0.00    -0.361 OA
HETATM   19  H   UNK     0      40.485  -4.151   1.899  0.00  0.00     0.217 HD
ENDBRANCH  15  18
ENDBRANCH   4  12
BRANCH   7  20
HETATM   20  O   UNK     0      37.993  -2.518  -6.520  0.00  0.00    -0.360 OA
HETATM   21  H   UNK     0      37.382  -2.773  -5.812  0.00  0.00     0.217 HD
ENDBRANCH   7  20
BRANCH  11  22
HETATM   22  O   UNK     0      38.226   1.684  -8.717  0.00  0.00    -0.361 OA
HETATM   23  H   UNK     0      38.280   2.627  -8.485  0.00  0.00     0.217 HD
ENDBRANCH  11  22
TORSDOF 4
ENDMDL
MODEL 17
REMARK VINA RESULT:      -5.9     25.915     29.187
REMARK  4 active torsions:
REMARK  status: ('A' for Active; 'I' for Inactive)
REMARK    1  A    between atoms: O_2  and  C_11 
REMARK    2  A    between atoms: O_4  and  C_15 
REMARK    3  A    between atoms: O_5  and  C_20 
REMARK    4  A    between atoms: C_7  and  C_10 
ROOT
HETATM    1  O   UNK     0      42.238 -10.013 -28.595  0.00  0.00    -0.321 OA
HETATM    2  O   UNK     0      42.004  -7.620 -25.299  0.00  0.00    -0.286 OA
HETATM    3  C   UNK     0      43.339  -8.554 -26.998  0.00  0.00     0.082 A 
HETATM    4  C   UNK     0      40.864  -9.002 -26.867  0.00  0.00     0.048 A 
HETATM    5  C   UNK     0      43.361  -9.391 -28.114  0.00  0.00     0.094 A 
HETATM    6  C   UNK     0      42.061  -8.324 -26.299  0.00  0.00     0.200 A 
HETATM    7  C   UNK     0      44.516  -7.947 -26.551  0.00  0.00     0.085 A 
HETATM    8  C   UNK     0      41.049  -9.775 -27.948  0.00  0.00     0.159 A 
HETATM    9  C   UNK     0      44.560  -9.627 -28.788  0.00  0.00     0.074 A 
HETATM   10  C   UNK     0      45.713  -8.184 -27.228  0.00  0.00     0.074 A 
HETATM   11  C   UNK     0      45.736  -9.021 -28.343  0.00  0.00     0.071 A 
ENDROOT
BRANCH   4  12
HETATM   12  C   UNK     0      39.521  -8.826 -26.289  0.00  0.00    -0.020 A 
HETATM   13  C   UNK     0      38.619  -7.935 -26.872  0.00  0.00     0.015 A 
HETATM   14  C   UNK     0      37.346  -7.769 -26.326  0.00  0.00     0.037 A 
HETATM   15  C   UNK     0      36.975  -8.493 -25.193  0.00  0.00     0.065 A 
HETATM   16  C   UNK     0      37.874  -9.384 -24.608  0.00  0.00     0.037 A 
HETATM   17  C   UNK     0      39.146  -9.550 -25.155  0.00  0.00     0.015 A 
BRANCH  15  18
HETATM   18  O   UNK     0      35.732  -8.331 -24.660  0.00  0.00    -0.361 OA
HETATM   19  H   UNK     0      35.166  -9.065 -24.952  0.00  0.00     0.217 HD
ENDBRANCH  15  18
ENDBRANCH   4  12
BRANCH   7  20
HETATM   20  O   UNK     0      44.550  -7.121 -25.469  0.00  0.00    -0.360 OA
HETATM   21  H   UNK     0      43.869  -7.371 -24.826  0.00  0.00     0.217 HD
ENDBRANCH   7  20
BRANCH  11  22
HETATM   22  O   UNK     0      46.907  -9.249 -28.999  0.00  0.00    -0.361 OA
HETATM   23  H   UNK     0      46.714  -9.435 -29.934  0.00  0.00     0.217 HD
ENDBRANCH  11  22
TORSDOF 4
ENDMDL
MODEL 18
REMARK VINA RESULT:      -5.9      1.724      7.140
REMARK  4 active torsions:
REMARK  status: ('A' for Active; 'I' for Inactive)
REMARK    1  A    between atoms: O_2  and  C_11 
REMARK    2  A    between atoms: O_4  and  C_15 
REMARK    3  A    between atoms: O_5  and  C_20 
REMARK    4  A    between atoms: C_7  and  C_10 
ROOT
HETATM    1  O   UNK     0      17.611 -29.335 -19.613  0.00  0.00    -0.321 OA
HETATM    2  O   UNK     0      18.893 -25.482 -19.210  0.00  0.00    -0.286 OA
HETATM    3  C   UNK     0      17.408 -27.175 -18.524  0.00  0.00     0.082 A 
HETATM    4  C   UNK     0      19.170 -27.594 -20.275  0.00  0.00     0.048 A 
HETATM    5  C   UNK     0      17.005 -28.497 -18.712  0.00  0.00     0.094 A 
HETATM    6  C   UNK     0      18.528 -26.645 -19.324  0.00  0.00     0.200 A 
HETATM    7  C   UNK     0      16.752 -26.367 -17.591  0.00  0.00     0.085 A 
HETATM    8  C   UNK     0      18.667 -28.836 -20.337  0.00  0.00     0.159 A 
HETATM    9  C   UNK     0      15.945 -29.018 -17.969  0.00  0.00     0.074 A 
HETATM   10  C   UNK     0      15.693 -26.890 -16.850  0.00  0.00     0.074 A 
HETATM   11  C   UNK     0      15.289 -28.213 -17.038  0.00  0.00     0.071 A 
ENDROOT
BRANCH   4  12
HETATM   12  C   UNK     0      20.322 -27.205 -21.105  0.00  0.00    -0.020 A 
HETATM   13  C   UNK     0      20.302 -27.433 -22.482  0.00  0.00     0.015 A 
HETATM   14  C   UNK     0      21.393 -27.063 -23.268  0.00  0.00     0.037 A 
HETATM   15  C   UNK     0      22.507 -26.466 -22.679  0.00  0.00     0.065 A 
HETATM   16  C   UNK     0      22.529 -26.237 -21.303  0.00  0.00     0.037 A 
HETATM   17  C   UNK     0      21.438 -26.607 -20.517  0.00  0.00     0.015 A 
BRANCH  15  18
HETATM   18  O   UNK     0      23.571 -26.105 -23.447  0.00  0.00    -0.361 OA
HETATM   19  H   UNK     0      23.435 -25.198 -23.768  0.00  0.00     0.217 HD
ENDBRANCH  15  18
ENDBRANCH   4  12
BRANCH   7  20
HETATM   20  O   UNK     0      17.105 -25.071 -17.367  0.00  0.00    -0.360 OA
HETATM   21  H   UNK     0      16.570 -24.689 -16.655  0.00  0.00     0.217 HD
ENDBRANCH   7  20
BRANCH  11  22
HETATM   22  O   UNK     0      14.254 -28.717 -16.312  0.00  0.00    -0.361 OA
HETATM   23  H   UNK     0      14.558 -28.883 -15.403  0.00  0.00     0.217 HD
ENDBRANCH  11  22
TORSDOF 4
ENDMDL
MODEL 19
REMARK VINA RESULT:      -5.9     18.288     19.973
REMARK  4 active torsions:
REMARK  status: ('A' for Active; 'I' for Inactive)
REMARK    1  A    between atoms: O_2  and  C_11 
REMARK    2  A    between atoms: O_4  and  C_15 
REMARK    3  A    between atoms: O_5  and  C_20 
REMARK    4  A    between atoms: C_7  and  C_10 
ROOT
HETATM    1  O   UNK     0      28.354 -31.138  -4.755  0.00  0.00    -0.321 OA
HETATM    2  O   UNK     0      29.346 -27.363  -3.565  0.00  0.00    -0.286 OA
HETATM    3  C   UNK     0      27.676 -28.854  -4.295  0.00  0.00     0.082 A 
HETATM    4  C   UNK     0      30.057 -29.602  -3.954  0.00  0.00     0.048 A 
HETATM    5  C   UNK     0      27.397 -30.157  -4.703  0.00  0.00     0.094 A 
HETATM    6  C   UNK     0      29.054 -28.503  -3.903  0.00  0.00     0.200 A 
HETATM    7  C   UNK     0      26.660 -27.894  -4.262  0.00  0.00     0.085 A 
HETATM    8  C   UNK     0      29.630 -30.805  -4.368  0.00  0.00     0.159 A 
HETATM    9  C   UNK     0      26.101 -30.510  -5.083  0.00  0.00     0.074 A 
HETATM   10  C   UNK     0      25.365 -28.250  -4.642  0.00  0.00     0.074 A 
HETATM   11  C   UNK     0      25.085 -29.554  -5.051  0.00  0.00     0.071 A 
ENDROOT
BRANCH   4  12
HETATM   12  C   UNK     0      31.458 -29.398  -3.552  0.00  0.00    -0.020 A 
HETATM   13  C   UNK     0      32.484 -29.551  -4.487  0.00  0.00     0.015 A 
HETATM   14  C   UNK     0      33.812 -29.356  -4.106  0.00  0.00     0.037 A 
HETATM   15  C   UNK     0      34.116 -29.008  -2.791  0.00  0.00     0.065 A 
HETATM   16  C   UNK     0      33.093 -28.854  -1.856  0.00  0.00     0.037 A 
HETATM   17  C   UNK     0      31.765 -29.049  -2.236  0.00  0.00     0.015 A 
BRANCH  15  18
HETATM   18  O   UNK     0      35.412 -28.818  -2.420  0.00  0.00    -0.361 OA
HETATM   19  H   UNK     0      35.933 -29.596  -2.682  0.00  0.00     0.217 HD
ENDBRANCH  15  18
ENDBRANCH   4  12
BRANCH   7  20
HETATM   20  O   UNK     0      26.877 -26.608  -3.870  0.00  0.00    -0.360 OA
HETATM   21  H   UNK     0      26.093 -26.062  -4.039  0.00  0.00     0.217 HD
ENDBRANCH   7  20
BRANCH  11  22
HETATM   22  O   UNK     0      23.820 -29.894  -5.421  0.00  0.00    -0.361 OA
HETATM   23  H   UNK     0      23.462 -29.195  -5.996  0.00  0.00     0.217 HD
ENDBRANCH  11  22
TORSDOF 4
ENDMDL
MODEL 20
REMARK VINA RESULT:      -5.8      2.579      6.706
REMARK  4 active torsions:
REMARK  status: ('A' for Active; 'I' for Inactive)
REMARK    1  A    between atoms: O_2  and  C_11 
REMARK    2  A    between atoms: O_4  and  C_15 
REMARK    3  A    between atoms: O_5  and  C_20 
REMARK    4  A    between atoms: C_7  and  C_10 
ROOT
HETATM    1  O   UNK     0      19.049 -25.651 -23.385  0.00  0.00    -0.321 OA
HETATM    2  O   UNK     0      20.648 -26.060 -19.653  0.00  0.00    -0.286 OA
HETATM    3  C   UNK     0      18.795 -25.464 -20.978  0.00  0.00     0.082 A 
HETATM    4  C   UNK     0      20.935 -26.309 -22.004  0.00  0.00     0.048 A 
HETATM    5  C   UNK     0      18.305 -25.335 -22.277  0.00  0.00     0.094 A 
HETATM    6  C   UNK     0      20.170 -25.959 -20.776  0.00  0.00     0.200 A 
HETATM    7  C   UNK     0      17.991 -25.126 -19.886  0.00  0.00     0.085 A 
HETATM    8  C   UNK     0      20.321 -26.130 -23.183  0.00  0.00     0.159 A 
HETATM    9  C   UNK     0      17.008 -24.865 -22.493  0.00  0.00     0.074 A 
HETATM   10  C   UNK     0      16.695 -24.656 -20.104  0.00  0.00     0.074 A 
HETATM   11  C   UNK     0      16.204 -24.526 -21.404  0.00  0.00     0.071 A 
ENDROOT
BRANCH   4  12
HETATM   12  C   UNK     0      22.303 -26.850 -21.941  0.00  0.00    -0.020 A 
HETATM   13  C   UNK     0      23.377 -26.008 -21.649  0.00  0.00     0.015 A 
HETATM   14  C   UNK     0      24.672 -26.520 -21.589  0.00  0.00     0.037 A 
HETATM   15  C   UNK     0      24.897 -27.877 -21.822  0.00  0.00     0.065 A 
HETATM   16  C   UNK     0      23.825 -28.721 -22.113  0.00  0.00     0.037 A 
HETATM   17  C   UNK     0      22.530 -28.208 -22.173  0.00  0.00     0.015 A 
BRANCH  15  18
HETATM   18  O   UNK     0      26.161 -28.377 -21.762  0.00  0.00    -0.361 OA
HETATM   19  H   UNK     0      26.726 -27.750 -21.279  0.00  0.00     0.217 HD
ENDBRANCH  15  18
ENDBRANCH   4  12
BRANCH   7  20
HETATM   20  O   UNK     0      18.419 -25.234 -18.598  0.00  0.00    -0.360 OA
HETATM   21  H   UNK     0      19.372 -25.064 -18.539  0.00  0.00     0.217 HD
ENDBRANCH   7  20
BRANCH  11  22
HETATM   22  O   UNK     0      14.939 -24.067 -21.610  0.00  0.00    -0.361 OA
HETATM   23  H   UNK     0      14.331 -24.545 -21.021  0.00  0.00     0.217 HD
ENDBRANCH  11  22
TORSDOF 4
ENDMDL
