REMARK  4 active torsions:
REMARK  status: ('A' for Active; 'I' for Inactive)
REMARK    1  A    between atoms: O_2  and  C_11 
REMARK    2  A    between atoms: O_4  and  C_15 
REMARK    3  A    between atoms: O_5  and  C_20 
REMARK    4  A    between atoms: C_7  and  C_10 
ROOT
HETATM    1  O   UNK     0       1.205   2.034  -0.019  0.00  0.00    -0.321 OA
HETATM    2  O   UNK     0      -0.086  -1.836  -0.068  0.00  0.00    -0.286 OA
HETATM    3  C   UNK     0       1.728  -0.336  -0.011  0.00  0.00     0.082 A 
HETATM    4  C   UNK     0      -0.657   0.475  -0.027  0.00  0.00     0.048 A 
HETATM    5  C   UNK     0       2.111   1.005  -0.006  0.00  0.00     0.094 A 
HETATM    6  C   UNK     0       0.292  -0.672  -0.034  0.00  0.00     0.200 A 
HETATM    7  C   UNK     0       2.696  -1.344   0.002  0.00  0.00     0.085 A 
HETATM    8  C   UNK     0      -0.130   1.709  -0.019  0.00  0.00     0.159 A 
HETATM    9  C   UNK     0       3.464   1.346   0.011  0.00  0.00     0.074 A 
HETATM   10  C   UNK     0       4.048  -1.000   0.019  0.00  0.00     0.074 A 
HETATM   11  C   UNK     0       4.432   0.341   0.024  0.00  0.00     0.071 A 
ENDROOT
BRANCH   4  12
HETATM   12  C   UNK     0      -2.116   0.279  -0.009  0.00  0.00    -0.020 A 
HETATM   13  C   UNK     0      -2.827   0.201  -1.208  0.00  0.00     0.015 A 
HETATM   14  C   UNK     0      -4.209   0.014  -1.191  0.00  0.00     0.037 A 
HETATM   15  C   UNK     0      -4.883  -0.094   0.025  0.00  0.00     0.065 A 
HETATM   16  C   UNK     0      -4.175  -0.017   1.224  0.00  0.00     0.037 A 
HETATM   17  C   UNK     0      -2.793   0.170   1.207  0.00  0.00     0.015 A 
BRANCH  15  18
HETATM   18  O   UNK     0      -6.232  -0.277   0.041  0.00  0.00    -0.361 OA
HETATM   19  H   UNK     0      -6.557  -0.307  -0.875  0.00  0.00     0.217 HD
ENDBRANCH  15  18
ENDBRANCH   4  12
BRANCH   7  20
HETATM   20  O   UNK     0       2.377  -2.668  -0.001  0.00  0.00    -0.360 OA
HETATM   21  H   UNK     0       1.415  -2.788   0.009  0.00  0.00     0.217 HD
ENDBRANCH   7  20
BRANCH  11  22
HETATM   22  O   UNK     0       5.753   0.670   0.040  0.00  0.00    -0.361 OA
HETATM   23  H   UNK     0       6.281  -0.147   0.047  0.00  0.00     0.217 HD
ENDBRANCH  11  22
TORSDOF 4
