REMARK VINA RESULT:      -7.7      0.000      0.000
REMARK  Name = GEN
REMARK  4 active torsions:
REMARK  status: ('A' for Active; 'I' for Inactive)
REMARK    1  A    between atoms: C_2  and  O_3
REMARK    2  A    between atoms: C_5  and  O_6
REMARK    3  A    between atoms: C_10  and  C_14
REMARK    4  A    between atoms: C_17  and  O_18
REMARK                            x       y       z     vdW  Elec       q    Type
REMARK                         _______ _______ _______ _____ _____    ______ ____
ROOT
ATOM      1  C   UNL     1      -3.192  -5.833 -53.251  0.00  0.00    +0.023 A 
ATOM      2  H   UNL     1      -4.117  -6.311 -52.962  0.00  0.00    +0.069 HD
ATOM      3  C   UNL     1      -2.393  -5.234 -52.290  0.00  0.00    +0.145 A 
ATOM      4  O   UNL     1      -2.750  -5.242 -50.989  0.00  0.00    -0.462 OA
ATOM      5  C   UNL     1      -2.177  -4.448 -50.078  0.00  0.00    +0.104 A 
ATOM      6  H   UNL     1      -2.657  -4.322 -49.119  0.00  0.00    +0.104 HD
ATOM      7  C   UNL     1      -1.011  -3.795 -50.323  0.00  0.00    +0.064 A 
ATOM      8  C   UNL     1      -0.377  -3.965 -51.643  0.00  0.00    +0.204 A 
ATOM      9  O   UNL     1       0.763  -3.593 -51.861  0.00  0.00    -0.286 OA
ATOM     10  C   UNL     1      -1.194  -4.612 -52.682  0.00  0.00    +0.106 A 
ATOM     11  C   UNL     1      -0.807  -4.607 -54.027  0.00  0.00    +0.135 A 
ATOM     12  C   UNL     1      -1.616  -5.213 -54.969  0.00  0.00    +0.022 A 
ATOM     13  H   UNL     1      -1.326  -5.214 -56.010  0.00  0.00    +0.069 HD
ATOM     14  C   UNL     1      -2.805  -5.822 -54.581  0.00  0.00    +0.124 A 
ENDROOT
BRANCH   7  15
ATOM     15  C   UNL     1      -0.393  -2.929 -49.290  0.00  0.00    -0.011 A 
ATOM     16  C   UNL     1       0.404  -3.490 -48.295  0.00  0.00    -0.050 A 
ATOM     17  H   UNL     1       0.572  -4.558 -48.274  0.00  0.00    +0.062 HD
ATOM     18  C   UNL     1       0.983  -2.683 -47.338  0.00  0.00    -0.020 A 
ATOM     19  H   UNL     1       1.601  -3.118 -46.567  0.00  0.00    +0.065 HD
ATOM     20  C   UNL     1       0.763  -1.312 -47.360  0.00  0.00    +0.117 A 
ATOM     21  C   UNL     1      -0.029  -0.750 -48.350  0.00  0.00    -0.020 A 
ATOM     22  H   UNL     1      -0.194   0.318 -48.368  0.00  0.00    +0.065 HD
ATOM     23  C   UNL     1      -0.606  -1.552 -49.312  0.00  0.00    -0.050 A 
ATOM     24  H   UNL     1      -1.224  -1.114 -50.083  0.00  0.00    +0.062 HD
BRANCH  20  25
ATOM     25  O   UNL     1       1.331  -0.519 -46.414  0.00  0.00    -0.507 OA
ATOM     26  H   UNL     1       1.985   0.030 -46.866  0.00  0.00    +0.292 HD
ENDBRANCH  20  25
ENDBRANCH   7  15
BRANCH  11  27
ATOM     27  O   UNL     1       0.355  -4.014 -54.403  0.00  0.00    -0.506 OA
ATOM     28  H   UNL     1       0.201  -3.625 -55.274  0.00  0.00    +0.292 HD
ENDBRANCH  11  27
BRANCH  14  29
ATOM     29  O   UNL     1      -3.595  -6.409 -55.515  0.00  0.00    -0.507 OA
ATOM     30  H   UNL     1      -3.811  -7.291 -55.184  0.00  0.00    +0.292 HD
ENDBRANCH  14  29
TORSDOF 4
