REMARK VINA RESULT:      -6.8      1.935      6.635
REMARK  Name = GEN
REMARK  4 active torsions:
REMARK  status: ('A' for Active; 'I' for Inactive)
REMARK    1  A    between atoms: C_2  and  O_3
REMARK    2  A    between atoms: C_5  and  O_6
REMARK    3  A    between atoms: C_10  and  C_14
REMARK    4  A    between atoms: C_17  and  O_18
REMARK                            x       y       z     vdW  Elec       q    Type
REMARK                         _______ _______ _______ _____ _____    ______ ____
ROOT
ATOM      1  C   UNL     1       1.053  -2.095 -48.418  0.00  0.00    +0.023 A 
ATOM      2  H   UNL     1       0.533  -1.862 -47.500  0.00  0.00    +0.069 HD
ATOM      3  C   UNL     1       0.333  -2.382 -49.568  0.00  0.00    +0.145 A 
ATOM      4  O   UNL     1      -1.016  -2.368 -49.562  0.00  0.00    -0.462 OA
ATOM      5  C   UNL     1      -1.747  -2.906 -50.544  0.00  0.00    +0.104 A 
ATOM      6  H   UNL     1      -2.799  -3.080 -50.376  0.00  0.00    +0.104 HD
ATOM      7  C   UNL     1      -1.207  -3.240 -51.744  0.00  0.00    +0.064 A 
ATOM      8  C   UNL     1       0.235  -3.011 -51.952  0.00  0.00    +0.204 A 
ATOM      9  O   UNL     1       0.744  -3.080 -53.058  0.00  0.00    -0.286 OA
ATOM     10  C   UNL     1       1.024  -2.690 -50.753  0.00  0.00    +0.106 A 
ATOM     11  C   UNL     1       2.424  -2.696 -50.775  0.00  0.00    +0.135 A 
ATOM     12  C   UNL     1       3.122  -2.404 -49.618  0.00  0.00    +0.022 A 
ATOM     13  H   UNL     1       4.203  -2.408 -49.625  0.00  0.00    +0.069 HD
ATOM     14  C   UNL     1       2.438  -2.107 -48.445  0.00  0.00    +0.124 A 
ENDROOT
BRANCH   7  15
ATOM     15  C   UNL     1      -2.045  -3.825 -52.819  0.00  0.00    -0.011 A 
ATOM     16  C   UNL     1      -2.785  -2.994 -53.657  0.00  0.00    -0.050 A 
ATOM     17  H   UNL     1      -2.750  -1.923 -53.525  0.00  0.00    +0.062 HD
ATOM     18  C   UNL     1      -3.559  -3.541 -54.659  0.00  0.00    -0.020 A 
ATOM     19  H   UNL     1      -4.133  -2.896 -55.310  0.00  0.00    +0.065 HD
ATOM     20  C   UNL     1      -3.610  -4.917 -54.827  0.00  0.00    +0.117 A 
ATOM     21  C   UNL     1      -2.874  -5.748 -53.995  0.00  0.00    -0.020 A 
ATOM     22  H   UNL     1      -2.911  -6.819 -54.131  0.00  0.00    +0.065 HD
ATOM     23  C   UNL     1      -2.094  -5.207 -52.994  0.00  0.00    -0.050 A 
ATOM     24  H   UNL     1      -1.521  -5.854 -52.345  0.00  0.00    +0.062 HD
BRANCH  20  25
ATOM     25  O   UNL     1      -4.377  -5.453 -55.813  0.00  0.00    -0.507 OA
ATOM     26  H   UNL     1      -5.217  -4.977 -55.803  0.00  0.00    +0.292 HD
ENDBRANCH  20  25
ENDBRANCH   7  15
BRANCH  11  27
ATOM     27  O   UNL     1       3.090  -2.985 -51.922  0.00  0.00    -0.506 OA
ATOM     28  H   UNL     1       3.832  -2.370 -51.977  0.00  0.00    +0.292 HD
ENDBRANCH  11  27
BRANCH  14  29
ATOM     29  O   UNL     1       3.134  -1.828 -47.314  0.00  0.00    -0.507 OA
ATOM     30  H   UNL     1       2.900  -0.925 -47.057  0.00  0.00    +0.292 HD
ENDBRANCH  14  29
TORSDOF 4
