REMARK VINA RESULT:      -6.7      2.282      6.941
REMARK  Name = GEN
REMARK  4 active torsions:
REMARK  status: ('A' for Active; 'I' for Inactive)
REMARK    1  A    between atoms: C_2  and  O_3
REMARK    2  A    between atoms: C_5  and  O_6
REMARK    3  A    between atoms: C_10  and  C_14
REMARK    4  A    between atoms: C_17  and  O_18
REMARK                            x       y       z     vdW  Elec       q    Type
REMARK                         _______ _______ _______ _____ _____    ______ ____
ROOT
ATOM      1  C   UNL     1       1.434  -3.026 -49.491  0.00  0.00    +0.023 A 
ATOM      2  H   UNL     1       2.243  -3.742 -49.525  0.00  0.00    +0.069 HD
ATOM      3  C   UNL     1       0.376  -3.133 -50.380  0.00  0.00    +0.145 A 
ATOM      4  O   UNL     1       0.334  -4.128 -51.290  0.00  0.00    -0.462 OA
ATOM      5  C   UNL     1      -0.498  -4.113 -52.337  0.00  0.00    +0.104 A 
ATOM      6  H   UNL     1      -0.324  -4.800 -53.152  0.00  0.00    +0.104 HD
ATOM      7  C   UNL     1      -1.552  -3.260 -52.408  0.00  0.00    +0.064 A 
ATOM      8  C   UNL     1      -1.765  -2.317 -51.295  0.00  0.00    +0.204 A 
ATOM      9  O   UNL     1      -2.798  -1.679 -51.182  0.00  0.00    -0.286 OA
ATOM     10  C   UNL     1      -0.666  -2.191 -50.325  0.00  0.00    +0.106 A 
ATOM     11  C   UNL     1      -0.640  -1.161 -49.377  0.00  0.00    +0.135 A 
ATOM     12  C   UNL     1       0.423  -1.074 -48.498  0.00  0.00    +0.022 A 
ATOM     13  H   UNL     1       0.452  -0.282 -47.763  0.00  0.00    +0.069 HD
ATOM     14  C   UNL     1       1.456  -2.003 -48.557  0.00  0.00    +0.124 A 
ENDROOT
BRANCH   7  15
ATOM     15  C   UNL     1      -2.465  -3.274 -53.577  0.00  0.00    -0.011 A 
ATOM     16  C   UNL     1      -2.267  -2.380 -54.627  0.00  0.00    -0.050 A 
ATOM     17  H   UNL     1      -1.449  -1.675 -54.590  0.00  0.00    +0.062 HD
ATOM     18  C   UNL     1      -3.114  -2.399 -55.715  0.00  0.00    -0.020 A 
ATOM     19  H   UNL     1      -2.961  -1.705 -56.530  0.00  0.00    +0.065 HD
ATOM     20  C   UNL     1      -4.168  -3.300 -55.761  0.00  0.00    +0.117 A 
ATOM     21  C   UNL     1      -4.367  -4.192 -54.718  0.00  0.00    -0.020 A 
ATOM     22  H   UNL     1      -5.186  -4.896 -54.758  0.00  0.00    +0.065 HD
ATOM     23  C   UNL     1      -3.521  -4.182 -53.629  0.00  0.00    -0.050 A 
ATOM     24  H   UNL     1      -3.676  -4.876 -52.816  0.00  0.00    +0.062 HD
BRANCH  20  25
ATOM     25  O   UNL     1      -5.004  -3.313 -56.833  0.00  0.00    -0.507 OA
ATOM     26  H   UNL     1      -4.522  -3.733 -57.557  0.00  0.00    +0.292 HD
ENDBRANCH  20  25
ENDBRANCH   7  15
BRANCH  11  27
ATOM     27  O   UNL     1      -1.651  -0.257 -49.320  0.00  0.00    -0.506 OA
ATOM     28  H   UNL     1      -1.339   0.540 -49.768  0.00  0.00    +0.292 HD
ENDBRANCH  11  27
BRANCH  14  29
ATOM     29  O   UNL     1       2.498  -1.904 -47.692  0.00  0.00    -0.507 OA
ATOM     30  H   UNL     1       3.056  -1.181 -48.009  0.00  0.00    +0.292 HD
ENDBRANCH  14  29
TORSDOF 4
