REMARK VINA RESULT:      -6.4      2.420      6.833
REMARK  Name = GEN
REMARK  4 active torsions:
REMARK  status: ('A' for Active; 'I' for Inactive)
REMARK    1  A    between atoms: C_2  and  O_3
REMARK    2  A    between atoms: C_5  and  O_6
REMARK    3  A    between atoms: C_10  and  C_14
REMARK    4  A    between atoms: C_17  and  O_18
REMARK                            x       y       z     vdW  Elec       q    Type
REMARK                         _______ _______ _______ _____ _____    ______ ____
ROOT
ATOM      1  C   UNL     1       3.306  -3.242 -50.687  0.00  0.00    +0.023 A 
ATOM      2  H   UNL     1       4.177  -3.787 -51.023  0.00  0.00    +0.069 HD
ATOM      3  C   UNL     1       2.074  -3.472 -51.280  0.00  0.00    +0.145 A 
ATOM      4  O   UNL     1       1.941  -4.377 -52.272  0.00  0.00    -0.462 OA
ATOM      5  C   UNL     1       0.861  -4.433 -53.059  0.00  0.00    +0.104 A 
ATOM      6  H   UNL     1       0.910  -5.004 -53.974  0.00  0.00    +0.104 HD
ATOM      7  C   UNL     1      -0.294  -3.791 -52.743  0.00  0.00    +0.064 A 
ATOM      8  C   UNL     1      -0.339  -3.002 -51.498  0.00  0.00    +0.204 A 
ATOM      9  O   UNL     1      -1.388  -2.583 -51.040  0.00  0.00    -0.286 OA
ATOM     10  C   UNL     1       0.951  -2.752 -50.836  0.00  0.00    +0.106 A 
ATOM     11  C   UNL     1       1.073  -1.819 -49.799  0.00  0.00    +0.135 A 
ATOM     12  C   UNL     1       2.310  -1.607 -49.220  0.00  0.00    +0.022 A 
ATOM     13  H   UNL     1       2.414  -0.888 -48.419  0.00  0.00    +0.069 HD
ATOM     14  C   UNL     1       3.421  -2.315 -49.664  0.00  0.00    +0.124 A 
ENDROOT
BRANCH   7  15
ATOM     15  C   UNL     1      -1.480  -3.880 -53.629  0.00  0.00    -0.011 A 
ATOM     16  C   UNL     1      -2.320  -4.988 -53.562  0.00  0.00    -0.050 A 
ATOM     17  H   UNL     1      -2.108  -5.786 -52.865  0.00  0.00    +0.062 HD
ATOM     18  C   UNL     1      -3.425  -5.065 -54.383  0.00  0.00    -0.020 A 
ATOM     19  H   UNL     1      -4.077  -5.925 -54.332  0.00  0.00    +0.065 HD
ATOM     20  C   UNL     1      -3.695  -4.044 -55.283  0.00  0.00    +0.117 A 
ATOM     21  C   UNL     1      -2.861  -2.938 -55.352  0.00  0.00    -0.020 A 
ATOM     22  H   UNL     1      -3.076  -2.142 -56.050  0.00  0.00    +0.065 HD
ATOM     23  C   UNL     1      -1.757  -2.853 -54.530  0.00  0.00    -0.050 A 
ATOM     24  H   UNL     1      -1.107  -1.992 -54.584  0.00  0.00    +0.062 HD
BRANCH  20  25
ATOM     25  O   UNL     1      -4.783  -4.124 -56.095  0.00  0.00    -0.507 OA
ATOM     26  H   UNL     1      -4.610  -3.547 -56.851  0.00  0.00    +0.292 HD
ENDBRANCH  20  25
ENDBRANCH   7  15
BRANCH  11  27
ATOM     27  O   UNL     1      -0.013  -1.131 -49.366  0.00  0.00    -0.506 OA
ATOM     28  H   UNL     1      -0.025  -1.204 -48.403  0.00  0.00    +0.292 HD
ENDBRANCH  11  27
BRANCH  14  29
ATOM     29  O   UNL     1       4.632  -2.094 -49.091  0.00  0.00    -0.507 OA
ATOM     30  H   UNL     1       5.204  -2.827 -49.356  0.00  0.00    +0.292 HD
ENDBRANCH  14  29
TORSDOF 4
