REMARK VINA RESULT:      -6.4      2.250      6.889
REMARK  Name = GEN
REMARK  4 active torsions:
REMARK  status: ('A' for Active; 'I' for Inactive)
REMARK    1  A    between atoms: C_2  and  O_3
REMARK    2  A    between atoms: C_5  and  O_6
REMARK    3  A    between atoms: C_10  and  C_14
REMARK    4  A    between atoms: C_17  and  O_18
REMARK                            x       y       z     vdW  Elec       q    Type
REMARK                         _______ _______ _______ _____ _____    ______ ____
ROOT
ATOM      1  C   UNL     1       2.726  -3.659 -51.275  0.00  0.00    +0.023 A 
ATOM      2  H   UNL     1       3.632  -3.957 -51.784  0.00  0.00    +0.069 HD
ATOM      3  C   UNL     1       1.493  -3.876 -51.872  0.00  0.00    +0.145 A 
ATOM      4  O   UNL     1       1.404  -4.464 -53.083  0.00  0.00    -0.462 OA
ATOM      5  C   UNL     1       0.286  -4.437 -53.817  0.00  0.00    +0.104 A 
ATOM      6  H   UNL     1       0.341  -4.706 -54.861  0.00  0.00    +0.104 HD
ATOM      7  C   UNL     1      -0.914  -4.082 -53.290  0.00  0.00    +0.064 A 
ATOM      8  C   UNL     1      -0.968  -3.701 -51.866  0.00  0.00    +0.204 A 
ATOM      9  O   UNL     1      -2.027  -3.582 -51.272  0.00  0.00    -0.286 OA
ATOM     10  C   UNL     1       0.324  -3.478 -51.199  0.00  0.00    +0.106 A 
ATOM     11  C   UNL     1       0.403  -2.878 -49.937  0.00  0.00    +0.135 A 
ATOM     12  C   UNL     1       1.642  -2.673 -49.359  0.00  0.00    +0.022 A 
ATOM     13  H   UNL     1       1.713  -2.211 -48.385  0.00  0.00    +0.069 HD
ATOM     14  C   UNL     1       2.798  -3.061 -50.027  0.00  0.00    +0.124 A 
ENDROOT
BRANCH   7  15
ATOM     15  C   UNL     1      -2.139  -4.072 -54.125  0.00  0.00    -0.011 A 
ATOM     16  C   UNL     1      -2.560  -2.892 -54.734  0.00  0.00    -0.050 A 
ATOM     17  H   UNL     1      -1.994  -1.982 -54.597  0.00  0.00    +0.062 HD
ATOM     18  C   UNL     1      -3.696  -2.887 -55.515  0.00  0.00    -0.020 A 
ATOM     19  H   UNL     1      -4.023  -1.972 -55.987  0.00  0.00    +0.065 HD
ATOM     20  C   UNL     1      -4.427  -4.055 -55.687  0.00  0.00    +0.117 A 
ATOM     21  C   UNL     1      -4.010  -5.232 -55.083  0.00  0.00    -0.020 A 
ATOM     22  H   UNL     1      -4.578  -6.140 -55.222  0.00  0.00    +0.065 HD
ATOM     23  C   UNL     1      -2.872  -5.244 -54.305  0.00  0.00    -0.050 A 
ATOM     24  H   UNL     1      -2.548  -6.161 -53.834  0.00  0.00    +0.062 HD
BRANCH  20  25
ATOM     25  O   UNL     1      -5.549  -4.047 -56.453  0.00  0.00    -0.507 OA
ATOM     26  H   UNL     1      -6.214  -3.539 -55.969  0.00  0.00    +0.292 HD
ENDBRANCH  20  25
ENDBRANCH   7  15
BRANCH  11  27
ATOM     27  O   UNL     1      -0.727  -2.502 -49.286  0.00  0.00    -0.506 OA
ATOM     28  H   UNL     1      -0.449  -1.980 -48.522  0.00  0.00    +0.292 HD
ENDBRANCH  11  27
BRANCH  14  29
ATOM     29  O   UNL     1       4.009  -2.850 -49.452  0.00  0.00    -0.507 OA
ATOM     30  H   UNL     1       4.238  -3.661 -48.977  0.00  0.00    +0.292 HD
ENDBRANCH  14  29
TORSDOF 4
