REMARK VINA RESULT:      -6.4      3.117      6.140
REMARK  Name = GEN
REMARK  4 active torsions:
REMARK  status: ('A' for Active; 'I' for Inactive)
REMARK    1  A    between atoms: C_2  and  O_3
REMARK    2  A    between atoms: C_5  and  O_6
REMARK    3  A    between atoms: C_10  and  C_14
REMARK    4  A    between atoms: C_17  and  O_18
REMARK                            x       y       z     vdW  Elec       q    Type
REMARK                         _______ _______ _______ _____ _____    ______ ____
ROOT
ATOM      1  C   UNL     1       3.158  -3.807 -51.199  0.00  0.00    +0.023 A 
ATOM      2  H   UNL     1       3.560  -4.560 -51.862  0.00  0.00    +0.069 HD
ATOM      3  C   UNL     1       1.790  -3.586 -51.151  0.00  0.00    +0.145 A 
ATOM      4  O   UNL     1       0.945  -4.305 -51.917  0.00  0.00    -0.462 OA
ATOM      5  C   UNL     1      -0.328  -3.946 -52.120  0.00  0.00    +0.104 A 
ATOM      6  H   UNL     1      -0.881  -4.413 -52.921  0.00  0.00    +0.104 HD
ATOM      7  C   UNL     1      -0.944  -3.012 -51.351  0.00  0.00    +0.064 A 
ATOM      8  C   UNL     1      -0.170  -2.371 -50.272  0.00  0.00    +0.204 A 
ATOM      9  O   UNL     1      -0.706  -1.693 -49.411  0.00  0.00    -0.286 OA
ATOM     10  C   UNL     1       1.283  -2.599 -50.287  0.00  0.00    +0.106 A 
ATOM     11  C   UNL     1       2.150  -1.854 -49.477  0.00  0.00    +0.135 A 
ATOM     12  C   UNL     1       3.509  -2.093 -49.539  0.00  0.00    +0.022 A 
ATOM     13  H   UNL     1       4.186  -1.523 -48.918  0.00  0.00    +0.069 HD
ATOM     14  C   UNL     1       4.011  -3.064 -50.399  0.00  0.00    +0.124 A 
ENDROOT
BRANCH   7  15
ATOM     15  C   UNL     1      -2.360  -2.642 -51.592  0.00  0.00    -0.011 A 
ATOM     16  C   UNL     1      -2.669  -1.561 -52.415  0.00  0.00    -0.050 A 
ATOM     17  H   UNL     1      -1.877  -0.990 -52.877  0.00  0.00    +0.062 HD
ATOM     18  C   UNL     1      -3.986  -1.222 -52.641  0.00  0.00    -0.020 A 
ATOM     19  H   UNL     1      -4.226  -0.384 -53.279  0.00  0.00    +0.065 HD
ATOM     20  C   UNL     1      -5.004  -1.951 -52.043  0.00  0.00    +0.117 A 
ATOM     21  C   UNL     1      -4.701  -3.029 -51.225  0.00  0.00    -0.020 A 
ATOM     22  H   UNL     1      -5.496  -3.598 -50.764  0.00  0.00    +0.065 HD
ATOM     23  C   UNL     1      -3.385  -3.376 -50.998  0.00  0.00    -0.050 A 
ATOM     24  H   UNL     1      -3.149  -4.214 -50.359  0.00  0.00    +0.062 HD
BRANCH  20  25
ATOM     25  O   UNL     1      -6.302  -1.613 -52.265  0.00  0.00    -0.507 OA
ATOM     26  H   UNL     1      -6.533  -1.951 -53.140  0.00  0.00    +0.292 HD
ENDBRANCH  20  25
ENDBRANCH   7  15
BRANCH  11  27
ATOM     27  O   UNL     1       1.658  -0.908 -48.638  0.00  0.00    -0.506 OA
ATOM     28  H   UNL     1       1.370  -1.366 -47.837  0.00  0.00    +0.292 HD
ENDBRANCH  11  27
BRANCH  14  29
ATOM     29  O   UNL     1       5.348  -3.286 -50.455  0.00  0.00    -0.507 OA
ATOM     30  H   UNL     1       5.649  -3.413 -49.545  0.00  0.00    +0.292 HD
ENDBRANCH  14  29
TORSDOF 4
