REMARK VINA RESULT:      -6.3      3.462      5.851
REMARK  Name = GEN
REMARK  4 active torsions:
REMARK  status: ('A' for Active; 'I' for Inactive)
REMARK    1  A    between atoms: C_2  and  O_3
REMARK    2  A    between atoms: C_5  and  O_6
REMARK    3  A    between atoms: C_10  and  C_14
REMARK    4  A    between atoms: C_17  and  O_18
REMARK                            x       y       z     vdW  Elec       q    Type
REMARK                         _______ _______ _______ _____ _____    ______ ____
ROOT
ATOM      1  C   UNL     1       1.237  -3.203 -50.464  0.00  0.00    +0.023 A 
ATOM      2  H   UNL     1       1.537  -2.772 -49.519  0.00  0.00    +0.069 HD
ATOM      3  C   UNL     1       0.047  -2.812 -51.057  0.00  0.00    +0.145 A 
ATOM      4  O   UNL     1      -0.746  -1.889 -50.475  0.00  0.00    -0.462 OA
ATOM      5  C   UNL     1      -2.014  -1.688 -50.849  0.00  0.00    +0.104 A 
ATOM      6  H   UNL     1      -2.666  -1.120 -50.202  0.00  0.00    +0.104 HD
ATOM      7  C   UNL     1      -2.508  -2.179 -52.015  0.00  0.00    +0.064 A 
ATOM      8  C   UNL     1      -1.610  -2.967 -52.879  0.00  0.00    +0.204 A 
ATOM      9  O   UNL     1      -1.908  -3.252 -54.027  0.00  0.00    -0.286 OA
ATOM     10  C   UNL     1      -0.331  -3.386 -52.284  0.00  0.00    +0.106 A 
ATOM     11  C   UNL     1       0.489  -4.336 -52.904  0.00  0.00    +0.135 A 
ATOM     12  C   UNL     1       1.673  -4.710 -52.297  0.00  0.00    +0.022 A 
ATOM     13  H   UNL     1       2.312  -5.443 -52.767  0.00  0.00    +0.069 HD
ATOM     14  C   UNL     1       2.043  -4.147 -51.080  0.00  0.00    +0.124 A 
ENDROOT
BRANCH   7  15
ATOM     15  C   UNL     1      -3.916  -1.932 -52.409  0.00  0.00    -0.011 A 
ATOM     16  C   UNL     1      -4.942  -2.681 -51.839  0.00  0.00    -0.050 A 
ATOM     17  H   UNL     1      -4.713  -3.445 -51.110  0.00  0.00    +0.062 HD
ATOM     18  C   UNL     1      -6.251  -2.446 -52.203  0.00  0.00    -0.020 A 
ATOM     19  H   UNL     1      -7.047  -3.027 -51.761  0.00  0.00    +0.065 HD
ATOM     20  C   UNL     1      -6.546  -1.469 -53.144  0.00  0.00    +0.117 A 
ATOM     21  C   UNL     1      -5.528  -0.720 -53.713  0.00  0.00    -0.020 A 
ATOM     22  H   UNL     1      -5.761   0.043 -54.442  0.00  0.00    +0.065 HD
ATOM     23  C   UNL     1      -4.217  -0.947 -53.349  0.00  0.00    -0.050 A 
ATOM     24  H   UNL     1      -3.423  -0.365 -53.793  0.00  0.00    +0.062 HD
BRANCH  20  25
ATOM     25  O   UNL     1      -7.837  -1.242 -53.504  0.00  0.00    -0.507 OA
ATOM     26  H   UNL     1      -7.875  -0.343 -53.856  0.00  0.00    +0.292 HD
ENDBRANCH  20  25
ENDBRANCH   7  15
BRANCH  11  27
ATOM     27  O   UNL     1       0.126  -4.883 -54.092  0.00  0.00    -0.506 OA
ATOM     28  H   UNL     1       0.856  -4.728 -54.706  0.00  0.00    +0.292 HD
ENDBRANCH  11  27
BRANCH  14  29
ATOM     29  O   UNL     1       3.205  -4.526 -50.491  0.00  0.00    -0.507 OA
ATOM     30  H   UNL     1       3.604  -5.195 -51.064  0.00  0.00    +0.292 HD
ENDBRANCH  14  29
TORSDOF 4
