REMARK VINA RESULT:      -6.3      3.291      3.509
REMARK  Name = GEN
REMARK  4 active torsions:
REMARK  status: ('A' for Active; 'I' for Inactive)
REMARK    1  A    between atoms: C_2  and  O_3
REMARK    2  A    between atoms: C_5  and  O_6
REMARK    3  A    between atoms: C_10  and  C_14
REMARK    4  A    between atoms: C_17  and  O_18
REMARK                            x       y       z     vdW  Elec       q    Type
REMARK                         _______ _______ _______ _____ _____    ______ ____
ROOT
ATOM      1  C   UNL     1      -4.467  -0.823 -55.100  0.00  0.00    +0.023 A 
ATOM      2  H   UNL     1      -5.386  -0.289 -54.903  0.00  0.00    +0.069 HD
ATOM      3  C   UNL     1      -3.752  -1.381 -54.051  0.00  0.00    +0.145 A 
ATOM      4  O   UNL     1      -4.192  -1.275 -52.780  0.00  0.00    -0.462 OA
ATOM      5  C   UNL     1      -3.414  -1.538 -51.724  0.00  0.00    +0.104 A 
ATOM      6  H   UNL     1      -3.733  -1.209 -50.746  0.00  0.00    +0.104 HD
ATOM      7  C   UNL     1      -2.237  -2.204 -51.844  0.00  0.00    +0.064 A 
ATOM      8  C   UNL     1      -1.808  -2.632 -53.189  0.00  0.00    +0.204 A 
ATOM      9  O   UNL     1      -0.886  -3.414 -53.351  0.00  0.00    -0.286 OA
ATOM     10  C   UNL     1      -2.556  -2.068 -54.323  0.00  0.00    +0.106 A 
ATOM     11  C   UNL     1      -2.096  -2.196 -55.640  0.00  0.00    +0.135 A 
ATOM     12  C   UNL     1      -2.825  -1.634 -56.670  0.00  0.00    +0.022 A 
ATOM     13  H   UNL     1      -2.478  -1.727 -57.690  0.00  0.00    +0.069 HD
ATOM     14  C   UNL     1      -4.005  -0.949 -56.400  0.00  0.00    +0.124 A 
ENDROOT
BRANCH   7  15
ATOM     15  C   UNL     1      -1.400  -2.492 -50.653  0.00  0.00    -0.011 A 
ATOM     16  C   UNL     1      -1.401  -3.766 -50.092  0.00  0.00    -0.050 A 
ATOM     17  H   UNL     1      -2.012  -4.547 -50.522  0.00  0.00    +0.062 HD
ATOM     18  C   UNL     1      -0.618  -4.033 -48.988  0.00  0.00    -0.020 A 
ATOM     19  H   UNL     1      -0.619  -5.021 -48.551  0.00  0.00    +0.065 HD
ATOM     20  C   UNL     1       0.162  -3.029 -48.431  0.00  0.00    +0.117 A 
ATOM     21  C   UNL     1       0.167  -1.760 -48.988  0.00  0.00    -0.020 A 
ATOM     22  H   UNL     1       0.779  -0.982 -48.555  0.00  0.00    +0.065 HD
ATOM     23  C   UNL     1      -0.610  -1.489 -50.095  0.00  0.00    -0.050 A 
ATOM     24  H   UNL     1      -0.608  -0.499 -50.529  0.00  0.00    +0.062 HD
BRANCH  20  25
ATOM     25  O   UNL     1       0.930  -3.293 -47.340  0.00  0.00    -0.507 OA
ATOM     26  H   UNL     1       1.571  -3.966 -47.606  0.00  0.00    +0.292 HD
ENDBRANCH  20  25
ENDBRANCH   7  15
BRANCH  11  27
ATOM     27  O   UNL     1      -0.946  -2.867 -55.901  0.00  0.00    -0.506 OA
ATOM     28  H   UNL     1      -0.420  -2.846 -55.090  0.00  0.00    +0.292 HD
ENDBRANCH  11  27
BRANCH  14  29
ATOM     29  O   UNL     1      -4.710  -0.397 -57.420  0.00  0.00    -0.507 OA
ATOM     30  H   UNL     1      -5.619  -0.293 -57.107  0.00  0.00    +0.292 HD
ENDBRANCH  14  29
TORSDOF 4
