REMARK VINA RESULT:      -6.2      2.561      3.613
REMARK  Name = GEN
REMARK  4 active torsions:
REMARK  status: ('A' for Active; 'I' for Inactive)
REMARK    1  A    between atoms: C_2  and  O_3
REMARK    2  A    between atoms: C_5  and  O_6
REMARK    3  A    between atoms: C_10  and  C_14
REMARK    4  A    between atoms: C_17  and  O_18
REMARK                            x       y       z     vdW  Elec       q    Type
REMARK                         _______ _______ _______ _____ _____    ______ ____
ROOT
ATOM      1  C   UNL     1      -5.268  -4.490 -54.607  0.00  0.00    +0.023 A 
ATOM      2  H   UNL     1      -5.996  -5.179 -54.203  0.00  0.00    +0.069 HD
ATOM      3  C   UNL     1      -3.973  -4.482 -54.113  0.00  0.00    +0.145 A 
ATOM      4  O   UNL     1      -3.600  -5.331 -53.133  0.00  0.00    -0.462 OA
ATOM      5  C   UNL     1      -2.471  -5.175 -52.435  0.00  0.00    +0.104 A 
ATOM      6  H   UNL     1      -2.343  -5.730 -51.517  0.00  0.00    +0.104 HD
ATOM      7  C   UNL     1      -1.481  -4.340 -52.842  0.00  0.00    +0.064 A 
ATOM      8  C   UNL     1      -1.678  -3.576 -54.088  0.00  0.00    +0.204 A 
ATOM      9  O   UNL     1      -0.762  -2.981 -54.629  0.00  0.00    -0.286 OA
ATOM     10  C   UNL     1      -3.039  -3.577 -54.647  0.00  0.00    +0.106 A 
ATOM     11  C   UNL     1      -3.410  -2.699 -55.673  0.00  0.00    +0.135 A 
ATOM     12  C   UNL     1      -4.706  -2.726 -56.153  0.00  0.00    +0.022 A 
ATOM     13  H   UNL     1      -5.002  -2.052 -56.944  0.00  0.00    +0.069 HD
ATOM     14  C   UNL     1      -5.631  -3.617 -55.620  0.00  0.00    +0.124 A 
ENDROOT
BRANCH   7  15
ATOM     15  C   UNL     1      -0.234  -4.195 -52.053  0.00  0.00    -0.011 A 
ATOM     16  C   UNL     1      -0.275  -3.633 -50.779  0.00  0.00    -0.050 A 
ATOM     17  H   UNL     1      -1.217  -3.301 -50.365  0.00  0.00    +0.062 HD
ATOM     18  C   UNL     1       0.885  -3.505 -50.044  0.00  0.00    -0.020 A 
ATOM     19  H   UNL     1       0.853  -3.069 -49.056  0.00  0.00    +0.065 HD
ATOM     20  C   UNL     1       2.095  -3.926 -50.577  0.00  0.00    +0.117 A 
ATOM     21  C   UNL     1       2.140  -4.487 -51.845  0.00  0.00    -0.020 A 
ATOM     22  H   UNL     1       3.083  -4.819 -52.255  0.00  0.00    +0.065 HD
ATOM     23  C   UNL     1       0.983  -4.623 -52.582  0.00  0.00    -0.050 A 
ATOM     24  H   UNL     1       1.018  -5.059 -53.570  0.00  0.00    +0.062 HD
BRANCH  20  25
ATOM     25  O   UNL     1       3.238  -3.795 -49.853  0.00  0.00    -0.507 OA
ATOM     26  H   UNL     1       3.969  -4.022 -50.442  0.00  0.00    +0.292 HD
ENDBRANCH  20  25
ENDBRANCH   7  15
BRANCH  11  27
ATOM     27  O   UNL     1      -2.505  -1.832 -56.192  0.00  0.00    -0.506 OA
ATOM     28  H   UNL     1      -2.939  -1.381 -56.928  0.00  0.00    +0.292 HD
ENDBRANCH  11  27
BRANCH  14  29
ATOM     29  O   UNL     1      -6.902  -3.630 -56.095  0.00  0.00    -0.507 OA
ATOM     30  H   UNL     1      -6.839  -3.620 -57.060  0.00  0.00    +0.292 HD
ENDBRANCH  14  29
TORSDOF 4
