REMARK VINA RESULT:      -6.0      4.730      6.438
REMARK  Name = GEN
REMARK  4 active torsions:
REMARK  status: ('A' for Active; 'I' for Inactive)
REMARK    1  A    between atoms: C_2  and  O_3
REMARK    2  A    between atoms: C_5  and  O_6
REMARK    3  A    between atoms: C_10  and  C_14
REMARK    4  A    between atoms: C_17  and  O_18
REMARK                            x       y       z     vdW  Elec       q    Type
REMARK                         _______ _______ _______ _____ _____    ______ ____
ROOT
ATOM      1  C   UNL     1      -0.247  -3.561 -50.810  0.00  0.00    +0.023 A 
ATOM      2  H   UNL     1      -0.822  -4.197 -51.468  0.00  0.00    +0.069 HD
ATOM      3  C   UNL     1       1.135  -3.661 -50.784  0.00  0.00    +0.145 A 
ATOM      4  O   UNL     1       1.781  -4.540 -51.578  0.00  0.00    -0.462 OA
ATOM      5  C   UNL     1       3.062  -4.875 -51.391  0.00  0.00    +0.104 A 
ATOM      6  H   UNL     1       3.453  -5.748 -51.893  0.00  0.00    +0.104 HD
ATOM      7  C   UNL     1       3.886  -4.152 -50.589  0.00  0.00    +0.064 A 
ATOM      8  C   UNL     1       3.333  -2.973 -49.898  0.00  0.00    +0.204 A 
ATOM      9  O   UNL     1       4.050  -2.159 -49.342  0.00  0.00    -0.286 OA
ATOM     10  C   UNL     1       1.869  -2.830 -49.919  0.00  0.00    +0.106 A 
ATOM     11  C   UNL     1       1.211  -1.905 -49.100  0.00  0.00    +0.135 A 
ATOM     12  C   UNL     1      -0.168  -1.820 -49.143  0.00  0.00    +0.022 A 
ATOM     13  H   UNL     1      -0.684  -1.109 -48.513  0.00  0.00    +0.069 HD
ATOM     14  C   UNL     1      -0.893  -2.647 -49.994  0.00  0.00    +0.124 A 
ENDROOT
BRANCH   7  15
ATOM     15  C   UNL     1       5.306  -4.541 -50.409  0.00  0.00    -0.011 A 
ATOM     16  C   UNL     1       6.295  -3.957 -51.198  0.00  0.00    -0.050 A 
ATOM     17  H   UNL     1       6.028  -3.221 -51.943  0.00  0.00    +0.062 HD
ATOM     18  C   UNL     1       7.615  -4.316 -51.025  0.00  0.00    -0.020 A 
ATOM     19  H   UNL     1       8.382  -3.863 -51.637  0.00  0.00    +0.065 HD
ATOM     20  C   UNL     1       7.958  -5.265 -50.073  0.00  0.00    +0.117 A 
ATOM     21  C   UNL     1       6.977  -5.848 -49.285  0.00  0.00    -0.020 A 
ATOM     22  H   UNL     1       7.248  -6.583 -48.541  0.00  0.00    +0.065 HD
ATOM     23  C   UNL     1       5.655  -5.489 -49.450  0.00  0.00    -0.050 A 
ATOM     24  H   UNL     1       4.891  -5.944 -48.837  0.00  0.00    +0.062 HD
BRANCH  20  25
ATOM     25  O   UNL     1       9.260  -5.620 -49.908  0.00  0.00    -0.507 OA
ATOM     26  H   UNL     1       9.771  -5.121 -50.558  0.00  0.00    +0.292 HD
ENDBRANCH  20  25
ENDBRANCH   7  15
BRANCH  11  27
ATOM     27  O   UNL     1       1.921  -1.098 -48.271  0.00  0.00    -0.506 OA
ATOM     28  H   UNL     1       1.357  -0.341 -48.068  0.00  0.00    +0.292 HD
ENDBRANCH  11  27
BRANCH  14  29
ATOM     29  O   UNL     1      -2.247  -2.558 -50.024  0.00  0.00    -0.507 OA
ATOM     30  H   UNL     1      -2.489  -1.794 -49.482  0.00  0.00    +0.292 HD
ENDBRANCH  14  29
TORSDOF 4
