REMARK VINA RESULT:      -5.9      3.481      7.134
REMARK  Name = GEN
REMARK  4 active torsions:
REMARK  status: ('A' for Active; 'I' for Inactive)
REMARK    1  A    between atoms: C_2  and  O_3
REMARK    2  A    between atoms: C_5  and  O_6
REMARK    3  A    between atoms: C_10  and  C_14
REMARK    4  A    between atoms: C_17  and  O_18
REMARK                            x       y       z     vdW  Elec       q    Type
REMARK                         _______ _______ _______ _____ _____    ______ ____
ROOT
ATOM      1  C   UNL     1       0.595  -3.941 -51.440  0.00  0.00    +0.023 A 
ATOM      2  H   UNL     1       1.475  -4.483 -51.756  0.00  0.00    +0.069 HD
ATOM      3  C   UNL     1      -0.358  -3.563 -52.374  0.00  0.00    +0.145 A 
ATOM      4  O   UNL     1      -0.207  -3.867 -53.679  0.00  0.00    -0.462 OA
ATOM      5  C   UNL     1      -0.933  -3.290 -54.643  0.00  0.00    +0.104 A 
ATOM      6  H   UNL     1      -0.611  -3.388 -55.669  0.00  0.00    +0.104 HD
ATOM      7  C   UNL     1      -2.061  -2.585 -54.371  0.00  0.00    +0.064 A 
ATOM      8  C   UNL     1      -2.478  -2.447 -52.963  0.00  0.00    +0.204 A 
ATOM      9  O   UNL     1      -3.579  -2.022 -52.658  0.00  0.00    -0.286 OA
ATOM     10  C   UNL     1      -1.495  -2.854 -51.948  0.00  0.00    +0.106 A 
ATOM     11  C   UNL     1      -1.669  -2.543 -50.593  0.00  0.00    +0.135 A 
ATOM     12  C   UNL     1      -0.709  -2.933 -49.679  0.00  0.00    +0.022 A 
ATOM     13  H   UNL     1      -0.834  -2.697 -48.632  0.00  0.00    +0.069 HD
ATOM     14  C   UNL     1       0.419  -3.627 -50.102  0.00  0.00    +0.124 A 
ENDROOT
BRANCH   7  15
ATOM     15  C   UNL     1      -2.853  -1.965 -55.461  0.00  0.00    -0.011 A 
ATOM     16  C   UNL     1      -2.598  -0.652 -55.849  0.00  0.00    -0.050 A 
ATOM     17  H   UNL     1      -1.825  -0.082 -55.355  0.00  0.00    +0.062 HD
ATOM     18  C   UNL     1      -3.332  -0.080 -56.867  0.00  0.00    -0.020 A 
ATOM     19  H   UNL     1      -3.135   0.939 -57.168  0.00  0.00    +0.065 HD
ATOM     20  C   UNL     1      -4.331  -0.809 -57.499  0.00  0.00    +0.117 A 
ATOM     21  C   UNL     1      -4.586  -2.117 -57.116  0.00  0.00    -0.020 A 
ATOM     22  H   UNL     1      -5.360  -2.683 -57.613  0.00  0.00    +0.065 HD
ATOM     23  C   UNL     1      -3.852  -2.696 -56.102  0.00  0.00    -0.050 A 
ATOM     24  H   UNL     1      -4.051  -3.715 -55.804  0.00  0.00    +0.062 HD
BRANCH  20  25
ATOM     25  O   UNL     1      -5.055  -0.241 -58.499  0.00  0.00    -0.507 OA
ATOM     26  H   UNL     1      -4.615   0.588 -58.727  0.00  0.00    +0.292 HD
ENDBRANCH  20  25
ENDBRANCH   7  15
BRANCH  11  27
ATOM     27  O   UNL     1      -2.771  -1.867 -50.183  0.00  0.00    -0.506 OA
ATOM     28  H   UNL     1      -3.494  -2.129 -50.768  0.00  0.00    +0.292 HD
ENDBRANCH  11  27
BRANCH  14  29
ATOM     29  O   UNL     1       1.358  -4.000 -49.196  0.00  0.00    -0.507 OA
ATOM     30  H   UNL     1       2.152  -3.483 -49.388  0.00  0.00    +0.292 HD
ENDBRANCH  14  29
TORSDOF 4
