REMARK VINA RESULT:      -7.4      1.300      1.677
REMARK  Name = GEN
REMARK  4 active torsions:
REMARK  status: ('A' for Active; 'I' for Inactive)
REMARK    1  A    between atoms: C_2  and  O_3
REMARK    2  A    between atoms: C_5  and  O_6
REMARK    3  A    between atoms: C_10  and  C_14
REMARK    4  A    between atoms: C_17  and  O_18
REMARK                            x       y       z     vdW  Elec       q    Type
REMARK                         _______ _______ _______ _____ _____    ______ ____
ROOT
ATOM      1  C   UNL     1      -3.997  -4.341 -53.690  0.00  0.00    +0.023 A 
ATOM      2  H   UNL     1      -4.926  -4.824 -53.424  0.00  0.00    +0.069 HD
ATOM      3  C   UNL     1      -3.062  -4.051 -52.708  0.00  0.00    +0.145 A 
ATOM      4  O   UNL     1      -3.290  -4.371 -51.418  0.00  0.00    -0.462 OA
ATOM      5  C   UNL     1      -2.568  -3.869 -50.411  0.00  0.00    +0.104 A 
ATOM      6  H   UNL     1      -2.941  -3.965 -49.402  0.00  0.00    +0.104 HD
ATOM      7  C   UNL     1      -1.382  -3.240 -50.618  0.00  0.00    +0.064 A 
ATOM      8  C   UNL     1      -0.895  -3.102 -52.003  0.00  0.00    +0.204 A 
ATOM      9  O   UNL     1       0.245  -2.751 -52.252  0.00  0.00    -0.286 OA
ATOM     10  C   UNL     1      -1.860  -3.417 -53.069  0.00  0.00    +0.106 A 
ATOM     11  C   UNL     1      -1.605  -3.091 -54.407  0.00  0.00    +0.135 A 
ATOM     12  C   UNL     1      -2.550  -3.391 -55.370  0.00  0.00    +0.022 A 
ATOM     13  H   UNL     1      -2.362  -3.142 -56.405  0.00  0.00    +0.069 HD
ATOM     14  C   UNL     1      -3.741  -4.012 -55.011  0.00  0.00    +0.124 A 
ENDROOT
BRANCH   7  15
ATOM     15  C   UNL     1      -0.597  -2.702 -49.480  0.00  0.00    -0.011 A 
ATOM     16  C   UNL     1      -0.591  -1.333 -49.222  0.00  0.00    -0.050 A 
ATOM     17  H   UNL     1      -1.158  -0.661 -49.851  0.00  0.00    +0.062 HD
ATOM     18  C   UNL     1       0.135  -0.836 -48.160  0.00  0.00    -0.020 A 
ATOM     19  H   UNL     1       0.140   0.226 -47.960  0.00  0.00    +0.065 HD
ATOM     20  C   UNL     1       0.868  -1.697 -47.356  0.00  0.00    +0.117 A 
ATOM     21  C   UNL     1       0.864  -3.060 -47.609  0.00  0.00    -0.020 A 
ATOM     22  H   UNL     1       1.431  -3.729 -46.978  0.00  0.00    +0.065 HD
ATOM     23  C   UNL     1       0.135  -3.564 -48.666  0.00  0.00    -0.050 A 
ATOM     24  H   UNL     1       0.132  -4.626 -48.864  0.00  0.00    +0.062 HD
BRANCH  20  25
ATOM     25  O   UNL     1       1.587  -1.204 -46.312  0.00  0.00    -0.507 OA
ATOM     26  H   UNL     1       2.499  -1.116 -46.618  0.00  0.00    +0.292 HD
ENDBRANCH  20  25
ENDBRANCH   7  15
BRANCH  11  27
ATOM     27  O   UNL     1      -0.441  -2.486 -54.754  0.00  0.00    -0.506 OA
ATOM     28  H   UNL     1       0.160  -2.584 -54.004  0.00  0.00    +0.292 HD
ENDBRANCH  11  27
BRANCH  14  29
ATOM     29  O   UNL     1      -4.663  -4.297 -55.965  0.00  0.00    -0.507 OA
ATOM     30  H   UNL     1      -4.524  -3.668 -56.686  0.00  0.00    +0.292 HD
ENDBRANCH  14  29
TORSDOF 4
