REMARK VINA RESULT:      -5.9      2.726      3.627
REMARK  Name = GEN
REMARK  4 active torsions:
REMARK  status: ('A' for Active; 'I' for Inactive)
REMARK    1  A    between atoms: C_2  and  O_3
REMARK    2  A    between atoms: C_5  and  O_6
REMARK    3  A    between atoms: C_10  and  C_14
REMARK    4  A    between atoms: C_17  and  O_18
REMARK                            x       y       z     vdW  Elec       q    Type
REMARK                         _______ _______ _______ _____ _____    ______ ____
ROOT
ATOM      1  C   UNL     1      -4.630  -4.590 -54.604  0.00  0.00    +0.023 A 
ATOM      2  H   UNL     1      -4.493  -5.305 -55.403  0.00  0.00    +0.069 HD
ATOM      3  C   UNL     1      -3.534  -4.123 -53.896  0.00  0.00    +0.145 A 
ATOM      4  O   UNL     1      -2.287  -4.544 -54.193  0.00  0.00    -0.462 OA
ATOM      5  C   UNL     1      -1.247  -4.353 -53.375  0.00  0.00    +0.104 A 
ATOM      6  H   UNL     1      -0.339  -4.912 -53.546  0.00  0.00    +0.104 HD
ATOM      7  C   UNL     1      -1.298  -3.480 -52.336  0.00  0.00    +0.064 A 
ATOM      8  C   UNL     1      -2.551  -2.737 -52.107  0.00  0.00    +0.204 A 
ATOM      9  O   UNL     1      -2.605  -1.789 -51.342  0.00  0.00    -0.286 OA
ATOM     10  C   UNL     1      -3.730  -3.198 -52.855  0.00  0.00    +0.106 A 
ATOM     11  C   UNL     1      -5.018  -2.745 -52.545  0.00  0.00    +0.135 A 
ATOM     12  C   UNL     1      -6.097  -3.221 -53.265  0.00  0.00    +0.022 A 
ATOM     13  H   UNL     1      -7.095  -2.877 -53.033  0.00  0.00    +0.069 HD
ATOM     14  C   UNL     1      -5.903  -4.141 -54.290  0.00  0.00    +0.124 A 
ENDROOT
BRANCH   7  15
ATOM     15  C   UNL     1      -0.124  -3.280 -51.451  0.00  0.00    -0.011 A 
ATOM     16  C   UNL     1       1.047  -2.724 -51.961  0.00  0.00    -0.050 A 
ATOM     17  H   UNL     1       1.102  -2.438 -53.001  0.00  0.00    +0.062 HD
ATOM     18  C   UNL     1       2.135  -2.534 -51.134  0.00  0.00    -0.020 A 
ATOM     19  H   UNL     1       3.044  -2.103 -51.529  0.00  0.00    +0.065 HD
ATOM     20  C   UNL     1       2.067  -2.907 -49.799  0.00  0.00    +0.117 A 
ATOM     21  C   UNL     1       0.903  -3.459 -49.289  0.00  0.00    -0.020 A 
ATOM     22  H   UNL     1       0.851  -3.744 -48.248  0.00  0.00    +0.065 HD
ATOM     23  C   UNL     1      -0.191  -3.647 -50.108  0.00  0.00    -0.050 A 
ATOM     24  H   UNL     1      -1.098  -4.078 -49.711  0.00  0.00    +0.062 HD
BRANCH  20  25
ATOM     25  O   UNL     1       3.142  -2.723 -48.988  0.00  0.00    -0.507 OA
ATOM     26  H   UNL     1       2.811  -2.726 -48.080  0.00  0.00    +0.292 HD
ENDBRANCH  20  25
ENDBRANCH   7  15
BRANCH  11  27
ATOM     27  O   UNL     1      -5.205  -1.845 -51.546  0.00  0.00    -0.506 OA
ATOM     28  H   UNL     1      -4.437  -1.258 -51.552  0.00  0.00    +0.292 HD
ENDBRANCH  11  27
BRANCH  14  29
ATOM     29  O   UNL     1      -6.970  -4.605 -54.987  0.00  0.00    -0.507 OA
ATOM     30  H   UNL     1      -6.769  -5.519 -55.230  0.00  0.00    +0.292 HD
ENDBRANCH  14  29
TORSDOF 4
