REMARK VINA RESULT:      -7.2      3.073      3.633
REMARK  Name = GEN
REMARK  4 active torsions:
REMARK  status: ('A' for Active; 'I' for Inactive)
REMARK    1  A    between atoms: C_2  and  O_3
REMARK    2  A    between atoms: C_5  and  O_6
REMARK    3  A    between atoms: C_10  and  C_14
REMARK    4  A    between atoms: C_17  and  O_18
REMARK                            x       y       z     vdW  Elec       q    Type
REMARK                         _______ _______ _______ _____ _____    ______ ____
ROOT
ATOM      1  C   UNL     1      -3.231  -3.707 -51.565  0.00  0.00    +0.023 A 
ATOM      2  H   UNL     1      -3.799  -3.362 -50.714  0.00  0.00    +0.069 HD
ATOM      3  C   UNL     1      -1.873  -3.954 -51.437  0.00  0.00    +0.145 A 
ATOM      4  O   UNL     1      -1.245  -3.777 -50.256  0.00  0.00    -0.462 OA
ATOM      5  C   UNL     1       0.087  -3.724 -50.148  0.00  0.00    +0.104 A 
ATOM      6  H   UNL     1       0.522  -3.344 -49.235  0.00  0.00    +0.104 HD
ATOM      7  C   UNL     1       0.908  -4.131 -51.150  0.00  0.00    +0.064 A 
ATOM      8  C   UNL     1       0.298  -4.632 -52.395  0.00  0.00    +0.204 A 
ATOM      9  O   UNL     1       0.954  -5.211 -53.245  0.00  0.00    -0.286 OA
ATOM     10  C   UNL     1      -1.146  -4.398 -52.556  0.00  0.00    +0.106 A 
ATOM     11  C   UNL     1      -1.788  -4.598 -53.784  0.00  0.00    +0.135 A 
ATOM     12  C   UNL     1      -3.143  -4.348 -53.889  0.00  0.00    +0.022 A 
ATOM     13  H   UNL     1      -3.648  -4.499 -54.833  0.00  0.00    +0.069 HD
ATOM     14  C   UNL     1      -3.860  -3.903 -52.784  0.00  0.00    +0.124 A 
ENDROOT
BRANCH   7  15
ATOM     15  C   UNL     1       2.382  -4.071 -50.997  0.00  0.00    -0.011 A 
ATOM     16  C   UNL     1       3.109  -5.239 -50.777  0.00  0.00    -0.050 A 
ATOM     17  H   UNL     1       2.600  -6.190 -50.716  0.00  0.00    +0.062 HD
ATOM     18  C   UNL     1       4.480  -5.181 -50.641  0.00  0.00    -0.020 A 
ATOM     19  H   UNL     1       5.045  -6.086 -50.470  0.00  0.00    +0.065 HD
ATOM     20  C   UNL     1       5.135  -3.959 -50.714  0.00  0.00    +0.117 A 
ATOM     21  C   UNL     1       4.415  -2.795 -50.934  0.00  0.00    -0.020 A 
ATOM     22  H   UNL     1       4.928  -1.846 -50.995  0.00  0.00    +0.065 HD
ATOM     23  C   UNL     1       3.044  -2.847 -51.076  0.00  0.00    -0.050 A 
ATOM     24  H   UNL     1       2.483  -1.940 -51.246  0.00  0.00    +0.062 HD
BRANCH  20  25
ATOM     25  O   UNL     1       6.487  -3.904 -50.575  0.00  0.00    -0.507 OA
ATOM     26  H   UNL     1       6.663  -3.448 -49.742  0.00  0.00    +0.292 HD
ENDBRANCH  20  25
ENDBRANCH   7  15
BRANCH  11  27
ATOM     27  O   UNL     1      -1.086  -5.034 -54.860  0.00  0.00    -0.506 OA
ATOM     28  H   UNL     1      -1.572  -5.786 -55.224  0.00  0.00    +0.292 HD
ENDBRANCH  11  27
BRANCH  14  29
ATOM     29  O   UNL     1      -5.189  -3.656 -52.901  0.00  0.00    -0.507 OA
ATOM     30  H   UNL     1      -5.286  -2.703 -53.032  0.00  0.00    +0.292 HD
ENDBRANCH  14  29
TORSDOF 4
