REMARK VINA RESULT:      -7.1      1.724      2.424
REMARK  Name = GEN
REMARK  4 active torsions:
REMARK  status: ('A' for Active; 'I' for Inactive)
REMARK    1  A    between atoms: C_2  and  O_3
REMARK    2  A    between atoms: C_5  and  O_6
REMARK    3  A    between atoms: C_10  and  C_14
REMARK    4  A    between atoms: C_17  and  O_18
REMARK                            x       y       z     vdW  Elec       q    Type
REMARK                         _______ _______ _______ _____ _____    ______ ____
ROOT
ATOM      1  C   UNL     1      -2.486  -5.754 -54.826  0.00  0.00    +0.023 A 
ATOM      2  H   UNL     1      -1.921  -6.502 -55.362  0.00  0.00    +0.069 HD
ATOM      3  C   UNL     1      -1.864  -4.968 -53.868  0.00  0.00    +0.145 A 
ATOM      4  O   UNL     1      -0.551  -5.119 -53.596  0.00  0.00    -0.462 OA
ATOM      5  C   UNL     1       0.024  -4.601 -52.506  0.00  0.00    +0.104 A 
ATOM      6  H   UNL     1       1.004  -4.950 -52.216  0.00  0.00    +0.104 HD
ATOM      7  C   UNL     1      -0.587  -3.652 -51.751  0.00  0.00    +0.064 A 
ATOM      8  C   UNL     1      -1.932  -3.198 -52.151  0.00  0.00    +0.204 A 
ATOM      9  O   UNL     1      -2.449  -2.208 -51.660  0.00  0.00    -0.286 OA
ATOM     10  C   UNL     1      -2.615  -4.002 -53.176  0.00  0.00    +0.106 A 
ATOM     11  C   UNL     1      -3.975  -3.827 -53.459  0.00  0.00    +0.135 A 
ATOM     12  C   UNL     1      -4.576  -4.619 -54.419  0.00  0.00    +0.022 A 
ATOM     13  H   UNL     1      -5.625  -4.492 -54.643  0.00  0.00    +0.069 HD
ATOM     14  C   UNL     1      -3.834  -5.579 -55.098  0.00  0.00    +0.124 A 
ENDROOT
BRANCH   7  15
ATOM     15  C   UNL     1       0.079  -3.087 -50.552  0.00  0.00    -0.011 A 
ATOM     16  C   UNL     1      -0.117  -3.672 -49.304  0.00  0.00    -0.050 A 
ATOM     17  H   UNL     1      -0.756  -4.538 -49.207  0.00  0.00    +0.062 HD
ATOM     18  C   UNL     1       0.508  -3.148 -48.192  0.00  0.00    -0.020 A 
ATOM     19  H   UNL     1       0.356  -3.602 -47.223  0.00  0.00    +0.065 HD
ATOM     20  C   UNL     1       1.325  -2.033 -48.314  0.00  0.00    +0.117 A 
ATOM     21  C   UNL     1       1.523  -1.448 -49.556  0.00  0.00    -0.020 A 
ATOM     22  H   UNL     1       2.163  -0.583 -49.649  0.00  0.00    +0.065 HD
ATOM     23  C   UNL     1       0.905  -1.970 -50.672  0.00  0.00    -0.050 A 
ATOM     24  H   UNL     1       1.059  -1.514 -51.639  0.00  0.00    +0.062 HD
BRANCH  20  25
ATOM     25  O   UNL     1       1.936  -1.516 -47.216  0.00  0.00    -0.507 OA
ATOM     26  H   UNL     1       1.586  -0.623 -47.095  0.00  0.00    +0.292 HD
ENDBRANCH  20  25
ENDBRANCH   7  15
BRANCH  11  27
ATOM     27  O   UNL     1      -4.697  -2.889 -52.796  0.00  0.00    -0.506 OA
ATOM     28  H   UNL     1      -4.942  -3.274 -51.944  0.00  0.00    +0.292 HD
ENDBRANCH  11  27
BRANCH  14  29
ATOM     29  O   UNL     1      -4.436  -6.354 -56.036  0.00  0.00    -0.507 OA
ATOM     30  H   UNL     1      -4.380  -5.874 -56.873  0.00  0.00    +0.292 HD
ENDBRANCH  14  29
TORSDOF 4
