REMARK VINA RESULT:      -7.1      1.959      2.720
REMARK  Name = GEN
REMARK  4 active torsions:
REMARK  status: ('A' for Active; 'I' for Inactive)
REMARK    1  A    between atoms: C_2  and  O_3
REMARK    2  A    between atoms: C_5  and  O_6
REMARK    3  A    between atoms: C_10  and  C_14
REMARK    4  A    between atoms: C_17  and  O_18
REMARK                            x       y       z     vdW  Elec       q    Type
REMARK                         _______ _______ _______ _____ _____    ______ ____
ROOT
ATOM      1  C   UNL     1      -5.404  -4.301 -54.360  0.00  0.00    +0.023 A 
ATOM      2  H   UNL     1      -6.312  -3.752 -54.156  0.00  0.00    +0.069 HD
ATOM      3  C   UNL     1      -4.354  -4.267 -53.455  0.00  0.00    +0.145 A 
ATOM      4  O   UNL     1      -4.451  -3.560 -52.310  0.00  0.00    -0.462 OA
ATOM      5  C   UNL     1      -3.389  -3.264 -51.553  0.00  0.00    +0.104 A 
ATOM      6  H   UNL     1      -3.486  -2.504 -50.792  0.00  0.00    +0.104 HD
ATOM      7  C   UNL     1      -2.193  -3.887 -51.714  0.00  0.00    +0.064 A 
ATOM      8  C   UNL     1      -2.073  -4.910 -52.770  0.00  0.00    +0.204 A 
ATOM      9  O   UNL     1      -1.112  -5.658 -52.833  0.00  0.00    -0.286 OA
ATOM     10  C   UNL     1      -3.177  -4.982 -53.739  0.00  0.00    +0.106 A 
ATOM     11  C   UNL     1      -3.070  -5.729 -54.918  0.00  0.00    +0.135 A 
ATOM     12  C   UNL     1      -4.128  -5.752 -55.806  0.00  0.00    +0.022 A 
ATOM     13  H   UNL     1      -4.054  -6.325 -56.719  0.00  0.00    +0.069 HD
ATOM     14  C   UNL     1      -5.290  -5.039 -55.528  0.00  0.00    +0.124 A 
ENDROOT
BRANCH   7  15
ATOM     15  C   UNL     1      -1.034  -3.545 -50.853  0.00  0.00    -0.011 A 
ATOM     16  C   UNL     1      -0.037  -2.697 -51.329  0.00  0.00    -0.050 A 
ATOM     17  H   UNL     1      -0.106  -2.288 -52.327  0.00  0.00    +0.062 HD
ATOM     18  C   UNL     1       1.036  -2.376 -50.524  0.00  0.00    -0.020 A 
ATOM     19  H   UNL     1       1.809  -1.718 -50.893  0.00  0.00    +0.065 HD
ATOM     20  C   UNL     1       1.128  -2.905 -49.245  0.00  0.00    +0.117 A 
ATOM     21  C   UNL     1       0.136  -3.749 -48.767  0.00  0.00    -0.020 A 
ATOM     22  H   UNL     1       0.208  -4.156 -47.769  0.00  0.00    +0.065 HD
ATOM     23  C   UNL     1      -0.942  -4.070 -49.565  0.00  0.00    -0.050 A 
ATOM     24  H   UNL     1      -1.714  -4.728 -49.194  0.00  0.00    +0.062 HD
BRANCH  20  25
ATOM     25  O   UNL     1       2.189  -2.591 -48.455  0.00  0.00    -0.507 OA
ATOM     26  H   UNL     1       2.931  -3.132 -48.756  0.00  0.00    +0.292 HD
ENDBRANCH  20  25
ENDBRANCH   7  15
BRANCH  11  27
ATOM     27  O   UNL     1      -1.936  -6.425 -55.186  0.00  0.00    -0.506 OA
ATOM     28  H   UNL     1      -1.670  -6.854 -54.362  0.00  0.00    +0.292 HD
ENDBRANCH  11  27
BRANCH  14  29
ATOM     29  O   UNL     1      -6.321  -5.064 -56.410  0.00  0.00    -0.507 OA
ATOM     30  H   UNL     1      -7.031  -5.573 -55.995  0.00  0.00    +0.292 HD
ENDBRANCH  14  29
TORSDOF 4
