REMARK VINA RESULT:      -7.1      2.308      6.823
REMARK  Name = GEN
REMARK  4 active torsions:
REMARK  status: ('A' for Active; 'I' for Inactive)
REMARK    1  A    between atoms: C_2  and  O_3
REMARK    2  A    between atoms: C_5  and  O_6
REMARK    3  A    between atoms: C_10  and  C_14
REMARK    4  A    between atoms: C_17  and  O_18
REMARK                            x       y       z     vdW  Elec       q    Type
REMARK                         _______ _______ _______ _____ _____    ______ ____
ROOT
ATOM      1  C   UNL     1       3.658  -2.095 -50.318  0.00  0.00    +0.023 A 
ATOM      2  H   UNL     1       4.478  -1.949 -51.006  0.00  0.00    +0.069 HD
ATOM      3  C   UNL     1       2.483  -2.687 -50.755  0.00  0.00    +0.145 A 
ATOM      4  O   UNL     1       2.347  -3.094 -52.034  0.00  0.00    -0.462 OA
ATOM      5  C   UNL     1       1.161  -3.402 -52.571  0.00  0.00    +0.104 A 
ATOM      6  H   UNL     1       1.080  -3.485 -53.644  0.00  0.00    +0.104 HD
ATOM      7  C   UNL     1       0.057  -3.611 -51.808  0.00  0.00    +0.064 A 
ATOM      8  C   UNL     1       0.181  -3.476 -50.345  0.00  0.00    +0.204 A 
ATOM      9  O   UNL     1      -0.696  -3.856 -49.588  0.00  0.00    -0.286 OA
ATOM     10  C   UNL     1       1.423  -2.865 -49.848  0.00  0.00    +0.106 A 
ATOM     11  C   UNL     1       1.557  -2.457 -48.515  0.00  0.00    +0.135 A 
ATOM     12  C   UNL     1       2.737  -1.871 -48.099  0.00  0.00    +0.022 A 
ATOM     13  H   UNL     1       2.849  -1.553 -47.072  0.00  0.00    +0.069 HD
ATOM     14  C   UNL     1       3.782  -1.690 -48.998  0.00  0.00    +0.124 A 
ENDROOT
BRANCH   7  15
ATOM     15  C   UNL     1      -1.243  -3.961 -52.431  0.00  0.00    -0.011 A 
ATOM     16  C   UNL     1      -1.555  -5.294 -52.690  0.00  0.00    -0.050 A 
ATOM     17  H   UNL     1      -0.850  -6.073 -52.439  0.00  0.00    +0.062 HD
ATOM     18  C   UNL     1      -2.766  -5.618 -53.264  0.00  0.00    -0.020 A 
ATOM     19  H   UNL     1      -3.009  -6.651 -53.466  0.00  0.00    +0.065 HD
ATOM     20  C   UNL     1      -3.670  -4.617 -53.593  0.00  0.00    +0.117 A 
ATOM     21  C   UNL     1      -3.363  -3.289 -53.334  0.00  0.00    -0.020 A 
ATOM     22  H   UNL     1      -4.070  -2.513 -53.587  0.00  0.00    +0.065 HD
ATOM     23  C   UNL     1      -2.155  -2.959 -52.756  0.00  0.00    -0.050 A 
ATOM     24  H   UNL     1      -1.915  -1.925 -52.556  0.00  0.00    +0.062 HD
BRANCH  20  25
ATOM     25  O   UNL     1      -4.862  -4.938 -54.162  0.00  0.00    -0.507 OA
ATOM     26  H   UNL     1      -5.073  -5.837 -53.878  0.00  0.00    +0.292 HD
ENDBRANCH  20  25
ENDBRANCH   7  15
BRANCH  11  27
ATOM     27  O   UNL     1       0.536  -2.637 -47.639  0.00  0.00    -0.506 OA
ATOM     28  H   UNL     1       0.821  -3.316 -47.013  0.00  0.00    +0.292 HD
ENDBRANCH  11  27
BRANCH  14  29
ATOM     29  O   UNL     1       4.935  -1.108 -48.580  0.00  0.00    -0.507 OA
ATOM     30  H   UNL     1       4.941  -0.210 -48.938  0.00  0.00    +0.292 HD
ENDBRANCH  14  29
TORSDOF 4
