REMARK VINA RESULT:      -7.0      1.976      2.843
REMARK  Name = GEN
REMARK  4 active torsions:
REMARK  status: ('A' for Active; 'I' for Inactive)
REMARK    1  A    between atoms: C_2  and  O_3
REMARK    2  A    between atoms: C_5  and  O_6
REMARK    3  A    between atoms: C_10  and  C_14
REMARK    4  A    between atoms: C_17  and  O_18
REMARK                            x       y       z     vdW  Elec       q    Type
REMARK                         _______ _______ _______ _____ _____    ______ ____
ROOT
ATOM      1  C   UNL     1      -2.755  -3.724 -54.595  0.00  0.00    +0.023 A 
ATOM      2  H   UNL     1      -2.110  -3.935 -55.436  0.00  0.00    +0.069 HD
ATOM      3  C   UNL     1      -2.212  -3.276 -53.400  0.00  0.00    +0.145 A 
ATOM      4  O   UNL     1      -0.881  -3.091 -53.271  0.00  0.00    -0.462 OA
ATOM      5  C   UNL     1      -0.286  -2.940 -52.083  0.00  0.00    +0.104 A 
ATOM      6  H   UNL     1       0.787  -3.038 -52.021  0.00  0.00    +0.104 HD
ATOM      7  C   UNL     1      -0.990  -2.671 -50.953  0.00  0.00    +0.064 A 
ATOM      8  C   UNL     1      -2.457  -2.558 -51.053  0.00  0.00    +0.204 A 
ATOM      9  O   UNL     1      -3.130  -2.109 -50.141  0.00  0.00    -0.286 OA
ATOM     10  C   UNL     1      -3.064  -3.011 -52.314  0.00  0.00    +0.106 A 
ATOM     11  C   UNL     1      -4.447  -3.188 -52.440  0.00  0.00    +0.135 A 
ATOM     12  C   UNL     1      -4.968  -3.633 -53.640  0.00  0.00    +0.022 A 
ATOM     13  H   UNL     1      -6.034  -3.773 -53.746  0.00  0.00    +0.069 HD
ATOM     14  C   UNL     1      -4.124  -3.901 -54.712  0.00  0.00    +0.124 A 
ENDROOT
BRANCH   7  15
ATOM     15  C   UNL     1      -0.302  -2.498 -49.651  0.00  0.00    -0.011 A 
ATOM     16  C   UNL     1       0.112  -3.614 -48.927  0.00  0.00    -0.050 A 
ATOM     17  H   UNL     1      -0.069  -4.607 -49.313  0.00  0.00    +0.062 HD
ATOM     18  C   UNL     1       0.757  -3.450 -47.719  0.00  0.00    -0.020 A 
ATOM     19  H   UNL     1       1.078  -4.315 -47.157  0.00  0.00    +0.065 HD
ATOM     20  C   UNL     1       0.985  -2.175 -47.219  0.00  0.00    +0.117 A 
ATOM     21  C   UNL     1       0.575  -1.062 -47.938  0.00  0.00    -0.020 A 
ATOM     22  H   UNL     1       0.758  -0.071 -47.549  0.00  0.00    +0.065 HD
ATOM     23  C   UNL     1      -0.066  -1.219 -49.149  0.00  0.00    -0.050 A 
ATOM     24  H   UNL     1      -0.386  -0.353 -49.709  0.00  0.00    +0.062 HD
BRANCH  20  25
ATOM     25  O   UNL     1       1.616  -2.017 -46.026  0.00  0.00    -0.507 OA
ATOM     26  H   UNL     1       1.115  -2.526 -45.375  0.00  0.00    +0.292 HD
ENDBRANCH  20  25
ENDBRANCH   7  15
BRANCH  11  27
ATOM     27  O   UNL     1      -5.268  -2.924 -51.392  0.00  0.00    -0.506 OA
ATOM     28  H   UNL     1      -5.269  -3.711 -50.832  0.00  0.00    +0.292 HD
ENDBRANCH  11  27
BRANCH  14  29
ATOM     29  O   UNL     1      -4.646  -4.343 -55.884  0.00  0.00    -0.507 OA
ATOM     30  H   UNL     1      -4.755  -5.300 -55.799  0.00  0.00    +0.292 HD
ENDBRANCH  14  29
TORSDOF 4
