REMARK VINA RESULT:      -7.0      1.712      6.617
REMARK  Name = GEN
REMARK  4 active torsions:
REMARK  status: ('A' for Active; 'I' for Inactive)
REMARK    1  A    between atoms: C_2  and  O_3
REMARK    2  A    between atoms: C_5  and  O_6
REMARK    3  A    between atoms: C_10  and  C_14
REMARK    4  A    between atoms: C_17  and  O_18
REMARK                            x       y       z     vdW  Elec       q    Type
REMARK                         _______ _______ _______ _____ _____    ______ ____
ROOT
ATOM      1  C   UNL     1       0.605  -2.952 -48.386  0.00  0.00    +0.023 A 
ATOM      2  H   UNL     1       0.310  -3.311 -47.411  0.00  0.00    +0.069 HD
ATOM      3  C   UNL     1      -0.213  -3.172 -49.484  0.00  0.00    +0.145 A 
ATOM      4  O   UNL     1      -1.385  -3.827 -49.353  0.00  0.00    -0.462 OA
ATOM      5  C   UNL     1      -2.062  -4.310 -50.400  0.00  0.00    +0.104 A 
ATOM      6  H   UNL     1      -2.854  -5.024 -50.226  0.00  0.00    +0.104 HD
ATOM      7  C   UNL     1      -1.784  -3.932 -51.674  0.00  0.00    +0.064 A 
ATOM      8  C   UNL     1      -0.689  -2.969 -51.896  0.00  0.00    +0.204 A 
ATOM      9  O   UNL     1      -0.523  -2.421 -52.973  0.00  0.00    -0.286 OA
ATOM     10  C   UNL     1       0.189  -2.702 -50.746  0.00  0.00    +0.106 A 
ATOM     11  C   UNL     1       1.397  -2.010 -50.893  0.00  0.00    +0.135 A 
ATOM     12  C   UNL     1       2.197  -1.799 -49.786  0.00  0.00    +0.022 A 
ATOM     13  H   UNL     1       3.131  -1.266 -49.889  0.00  0.00    +0.069 HD
ATOM     14  C   UNL     1       1.802  -2.270 -48.538  0.00  0.00    +0.124 A 
ENDROOT
BRANCH   7  15
ATOM     15  C   UNL     1      -2.560  -4.476 -52.816  0.00  0.00    -0.011 A 
ATOM     16  C   UNL     1      -3.806  -3.941 -53.131  0.00  0.00    -0.050 A 
ATOM     17  H   UNL     1      -4.211  -3.129 -52.543  0.00  0.00    +0.062 HD
ATOM     18  C   UNL     1      -4.523  -4.444 -54.196  0.00  0.00    -0.020 A 
ATOM     19  H   UNL     1      -5.490  -4.030 -54.440  0.00  0.00    +0.065 HD
ATOM     20  C   UNL     1      -4.007  -5.491 -54.948  0.00  0.00    +0.117 A 
ATOM     21  C   UNL     1      -2.766  -6.025 -54.638  0.00  0.00    -0.020 A 
ATOM     22  H   UNL     1      -2.365  -6.836 -55.228  0.00  0.00    +0.065 HD
ATOM     23  C   UNL     1      -2.042  -5.522 -53.577  0.00  0.00    -0.050 A 
ATOM     24  H   UNL     1      -1.076  -5.939 -53.335  0.00  0.00    +0.062 HD
BRANCH  20  25
ATOM     25  O   UNL     1      -4.718  -5.988 -55.995  0.00  0.00    -0.507 OA
ATOM     26  H   UNL     1      -4.439  -5.498 -56.779  0.00  0.00    +0.292 HD
ENDBRANCH  20  25
ENDBRANCH   7  15
BRANCH  11  27
ATOM     27  O   UNL     1       1.779  -1.550 -52.111  0.00  0.00    -0.506 OA
ATOM     28  H   UNL     1       2.705  -1.800 -52.227  0.00  0.00    +0.292 HD
ENDBRANCH  11  27
BRANCH  14  29
ATOM     29  O   UNL     1       2.598  -2.061 -47.459  0.00  0.00    -0.507 OA
ATOM     30  H   UNL     1       2.762  -1.109 -47.413  0.00  0.00    +0.292 HD
ENDBRANCH  14  29
TORSDOF 4
