REMARK VINA RESULT:      -6.9      3.046      4.137
REMARK  Name = GEN
REMARK  4 active torsions:
REMARK  status: ('A' for Active; 'I' for Inactive)
REMARK    1  A    between atoms: C_2  and  O_3
REMARK    2  A    between atoms: C_5  and  O_6
REMARK    3  A    between atoms: C_10  and  C_14
REMARK    4  A    between atoms: C_17  and  O_18
REMARK                            x       y       z     vdW  Elec       q    Type
REMARK                         _______ _______ _______ _____ _____    ______ ____
ROOT
ATOM      1  C   UNL     1      -2.364  -4.625 -53.925  0.00  0.00    +0.023 A 
ATOM      2  H   UNL     1      -2.385  -4.954 -54.954  0.00  0.00    +0.069 HD
ATOM      3  C   UNL     1      -1.153  -4.335 -53.315  0.00  0.00    +0.145 A 
ATOM      4  O   UNL     1       0.008  -4.450 -53.993  0.00  0.00    -0.462 OA
ATOM      5  C   UNL     1       1.199  -4.462 -53.385  0.00  0.00    +0.104 A 
ATOM      6  H   UNL     1       2.065  -4.794 -53.939  0.00  0.00    +0.104 HD
ATOM      7  C   UNL     1       1.354  -4.070 -52.094  0.00  0.00    +0.064 A 
ATOM      8  C   UNL     1       0.159  -3.635 -51.347  0.00  0.00    +0.204 A 
ATOM      9  O   UNL     1       0.245  -3.070 -50.270  0.00  0.00    -0.286 OA
ATOM     10  C   UNL     1      -1.142  -3.915 -51.974  0.00  0.00    +0.106 A 
ATOM     11  C   UNL     1      -2.341  -3.780 -51.264  0.00  0.00    +0.135 A 
ATOM     12  C   UNL     1      -3.538  -4.071 -51.892  0.00  0.00    +0.022 A 
ATOM     13  H   UNL     1      -4.468  -3.971 -51.352  0.00  0.00    +0.069 HD
ATOM     14  C   UNL     1      -3.548  -4.494 -53.216  0.00  0.00    +0.124 A 
ENDROOT
BRANCH   7  15
ATOM     15  C   UNL     1       2.689  -4.083 -51.449  0.00  0.00    -0.011 A 
ATOM     16  C   UNL     1       3.376  -2.889 -51.242  0.00  0.00    -0.050 A 
ATOM     17  H   UNL     1       2.937  -1.951 -51.553  0.00  0.00    +0.062 HD
ATOM     18  C   UNL     1       4.615  -2.903 -50.638  0.00  0.00    -0.020 A 
ATOM     19  H   UNL     1       5.148  -1.977 -50.478  0.00  0.00    +0.065 HD
ATOM     20  C   UNL     1       5.183  -4.106 -50.245  0.00  0.00    +0.117 A 
ATOM     21  C   UNL     1       4.502  -5.297 -50.448  0.00  0.00    -0.020 A 
ATOM     22  H   UNL     1       4.945  -6.232 -50.136  0.00  0.00    +0.065 HD
ATOM     23  C   UNL     1       3.260  -5.289 -51.047  0.00  0.00    -0.050 A 
ATOM     24  H   UNL     1       2.730  -6.217 -51.207  0.00  0.00    +0.062 HD
BRANCH  20  25
ATOM     25  O   UNL     1       6.407  -4.118 -49.653  0.00  0.00    -0.507 OA
ATOM     26  H   UNL     1       6.487  -4.965 -49.194  0.00  0.00    +0.292 HD
ENDBRANCH  20  25
ENDBRANCH   7  15
BRANCH  11  27
ATOM     27  O   UNL     1      -2.329  -3.365 -49.972  0.00  0.00    -0.506 OA
ATOM     28  H   UNL     1      -3.200  -3.565 -49.606  0.00  0.00    +0.292 HD
ENDBRANCH  11  27
BRANCH  14  29
ATOM     29  O   UNL     1      -4.728  -4.783 -53.820  0.00  0.00    -0.507 OA
ATOM     30  H   UNL     1      -4.518  -5.299 -54.611  0.00  0.00    +0.292 HD
ENDBRANCH  14  29
TORSDOF 4
