MODEL 1
REMARK VINA RESULT:      -7.4      0.000      0.000
REMARK  Name = GEN
REMARK  4 active torsions:
REMARK  status: ('A' for Active; 'I' for Inactive)
REMARK    1  A    between atoms: C_2  and  O_3
REMARK    2  A    between atoms: C_5  and  O_6
REMARK    3  A    between atoms: C_10  and  C_14
REMARK    4  A    between atoms: C_17  and  O_18
REMARK                            x       y       z     vdW  Elec       q    Type
REMARK                         _______ _______ _______ _____ _____    ______ ____
ROOT
ATOM      1  C   UNL A   1      -3.958  -4.341 -53.666  0.00  0.00    +0.092 A 
ATOM      2  C   UNL A   1      -3.026  -4.049 -52.683  0.00  0.00    +0.145 A 
ATOM      3  O   UNL A   1      -3.255  -4.375 -51.394  0.00  0.00    -0.462 OA
ATOM      4  C   UNL A   1      -2.536  -3.872 -50.384  0.00  0.00    +0.208 A 
ATOM      5  C   UNL A   1      -1.354  -3.236 -50.588  0.00  0.00    +0.064 A 
ATOM      6  C   UNL A   1      -0.866  -3.091 -51.972  0.00  0.00    +0.204 A 
ATOM      7  O   UNL A   1       0.273  -2.733 -52.218  0.00  0.00    -0.286 OA
ATOM      8  C   UNL A   1      -1.827  -3.407 -53.040  0.00  0.00    +0.106 A 
ATOM      9  C   UNL A   1      -1.573  -3.076 -54.376  0.00  0.00    +0.135 A 
ATOM     10  C   UNL A   1      -2.514  -3.378 -55.342  0.00  0.00    +0.091 A 
ATOM     11  C   UNL A   1      -3.703  -4.007 -54.987  0.00  0.00    +0.124 A 
ENDROOT
BRANCH   5  12
ATOM     12  C   UNL A   1      -0.573  -2.697 -49.448  0.00  0.00    -0.011 A 
ATOM     13  C   UNL A   1       0.147  -3.560 -48.625  0.00  0.00    +0.012 A 
ATOM     14  C   UNL A   1       0.877  -3.056 -47.569  0.00  0.00    +0.046 A 
ATOM     15  C   UNL A   1       0.886  -1.691 -47.319  0.00  0.00    +0.117 A 
ATOM     16  C   UNL A   1       0.172  -0.828 -48.137  0.00  0.00    +0.046 A 
ATOM     17  C   UNL A   1      -0.556  -1.326 -49.198  0.00  0.00    +0.012 A 
BRANCH  15  18
ATOM     18  O   UNL A   1       1.603  -1.197 -46.275  0.00  0.00    -0.507 OA
ATOM     19  H   UNL A   1       2.168  -1.914 -45.960  0.00  0.00    +0.292 HD
ENDBRANCH  15  18
ENDBRANCH   5  12
BRANCH   9  20
ATOM     20  O   UNL A   1      -0.411  -2.464 -54.720  0.00  0.00    -0.506 OA
ATOM     21  H   UNL A   1      -0.301  -1.716 -54.119  0.00  0.00    +0.292 HD
ENDBRANCH   9  20
BRANCH  11  22
ATOM     22  O   UNL A   1      -4.622  -4.294 -55.942  0.00  0.00    -0.507 OA
ATOM     23  H   UNL A   1      -5.212  -3.530 -56.001  0.00  0.00    +0.292 HD
ENDBRANCH  11  22
TORSDOF 4
ENDMDL
MODEL 2
REMARK VINA RESULT:      -7.1      1.670      2.423
REMARK  Name = GEN
REMARK  4 active torsions:
REMARK  status: ('A' for Active; 'I' for Inactive)
REMARK    1  A    between atoms: C_2  and  O_3
REMARK    2  A    between atoms: C_5  and  O_6
REMARK    3  A    between atoms: C_10  and  C_14
REMARK    4  A    between atoms: C_17  and  O_18
REMARK                            x       y       z     vdW  Elec       q    Type
REMARK                         _______ _______ _______ _____ _____    ______ ____
ROOT
ATOM      1  C   UNL A   1      -2.517  -5.777 -54.811  0.00  0.00    +0.092 A 
ATOM      2  C   UNL A   1      -1.890  -4.987 -53.859  0.00  0.00    +0.145 A 
ATOM      3  O   UNL A   1      -0.583  -5.154 -53.573  0.00  0.00    -0.462 OA
ATOM      4  C   UNL A   1      -0.009  -4.628 -52.485  0.00  0.00    +0.208 A 
ATOM      5  C   UNL A   1      -0.612  -3.658 -51.751  0.00  0.00    +0.064 A 
ATOM      6  C   UNL A   1      -1.946  -3.189 -52.170  0.00  0.00    +0.204 A 
ATOM      7  O   UNL A   1      -2.451  -2.184 -51.699  0.00  0.00    -0.286 OA
ATOM      8  C   UNL A   1      -2.632  -3.998 -53.189  0.00  0.00    +0.106 A 
ATOM      9  C   UNL A   1      -3.987  -3.806 -53.486  0.00  0.00    +0.135 A 
ATOM     10  C   UNL A   1      -4.592  -4.603 -54.440  0.00  0.00    +0.091 A 
ATOM     11  C   UNL A   1      -3.859  -5.585 -55.098  0.00  0.00    +0.124 A 
ENDROOT
BRANCH   5  12
ATOM     12  C   UNL A   1       0.053  -3.085 -50.555  0.00  0.00    -0.011 A 
ATOM     13  C   UNL A   1       0.857  -1.954 -50.678  0.00  0.00    +0.012 A 
ATOM     14  C   UNL A   1       1.470  -1.421 -49.564  0.00  0.00    +0.046 A 
ATOM     15  C   UNL A   1       1.294  -2.015 -48.322  0.00  0.00    +0.117 A 
ATOM     16  C   UNL A   1       0.492  -3.139 -48.195  0.00  0.00    +0.046 A 
ATOM     17  C   UNL A   1      -0.127  -3.675 -49.305  0.00  0.00    +0.012 A 
BRANCH  15  18
ATOM     18  O   UNL A   1       1.902  -1.489 -47.226  0.00  0.00    -0.507 OA
ATOM     19  H   UNL A   1       2.626  -2.086 -46.996  0.00  0.00    +0.292 HD
ENDBRANCH  15  18
ENDBRANCH   5  12
BRANCH   9  20
ATOM     20  O   UNL A   1      -4.699  -2.846 -52.844  0.00  0.00    -0.506 OA
ATOM     21  H   UNL A   1      -4.418  -1.998 -53.211  0.00  0.00    +0.292 HD
ENDBRANCH   9  20
BRANCH  11  22
ATOM     22  O   UNL A   1      -4.465  -6.365 -56.028  0.00  0.00    -0.507 OA
ATOM     23  H   UNL A   1      -4.519  -5.841 -56.839  0.00  0.00    +0.292 HD
ENDBRANCH  11  22
TORSDOF 4
ENDMDL
MODEL 3
REMARK VINA RESULT:      -7.1      2.274      7.037
REMARK  Name = GEN
REMARK  4 active torsions:
REMARK  status: ('A' for Active; 'I' for Inactive)
REMARK    1  A    between atoms: C_2  and  O_3
REMARK    2  A    between atoms: C_5  and  O_6
REMARK    3  A    between atoms: C_10  and  C_14
REMARK    4  A    between atoms: C_17  and  O_18
REMARK                            x       y       z     vdW  Elec       q    Type
REMARK                         _______ _______ _______ _____ _____    ______ ____
ROOT
ATOM      1  C   UNL A   1       3.663  -2.112 -50.312  0.00  0.00    +0.092 A 
ATOM      2  C   UNL A   1       2.490  -2.705 -50.751  0.00  0.00    +0.145 A 
ATOM      3  O   UNL A   1       2.360  -3.121 -52.028  0.00  0.00    -0.462 OA
ATOM      4  C   UNL A   1       1.177  -3.430 -52.569  0.00  0.00    +0.208 A 
ATOM      5  C   UNL A   1       0.068  -3.630 -51.811  0.00  0.00    +0.064 A 
ATOM      6  C   UNL A   1       0.184  -3.486 -50.348  0.00  0.00    +0.204 A 
ATOM      7  O   UNL A   1      -0.699  -3.858 -49.593  0.00  0.00    -0.286 OA
ATOM      8  C   UNL A   1       1.425  -2.874 -49.848  0.00  0.00    +0.106 A 
ATOM      9  C   UNL A   1       1.552  -2.457 -48.518  0.00  0.00    +0.135 A 
ATOM     10  C   UNL A   1       2.731  -1.871 -48.100  0.00  0.00    +0.091 A 
ATOM     11  C   UNL A   1       3.782  -1.698 -48.994  0.00  0.00    +0.124 A 
ENDROOT
BRANCH   5  12
ATOM     12  C   UNL A   1      -1.229  -3.982 -52.439  0.00  0.00    -0.011 A 
ATOM     13  C   UNL A   1      -2.129  -2.979 -52.792  0.00  0.00    +0.012 A 
ATOM     14  C   UNL A   1      -3.332  -3.309 -53.380  0.00  0.00    +0.046 A 
ATOM     15  C   UNL A   1      -3.651  -4.640 -53.611  0.00  0.00    +0.117 A 
ATOM     16  C   UNL A   1      -2.758  -5.641 -53.262  0.00  0.00    +0.046 A 
ATOM     17  C   UNL A   1      -1.551  -5.317 -52.678  0.00  0.00    +0.012 A 
BRANCH  15  18
ATOM     18  O   UNL A   1      -4.839  -4.962 -54.187  0.00  0.00    -0.507 OA
ATOM     19  H   UNL A   1      -4.964  -4.355 -54.929  0.00  0.00    +0.292 HD
ENDBRANCH  15  18
ENDBRANCH   5  12
BRANCH   9  20
ATOM     20  O   UNL A   1       0.526  -2.629 -47.646  0.00  0.00    -0.506 OA
ATOM     21  H   UNL A   1       0.802  -3.310 -47.020  0.00  0.00    +0.292 HD
ENDBRANCH   9  20
BRANCH  11  22
ATOM     22  O   UNL A   1       4.933  -1.117 -48.574  0.00  0.00    -0.507 OA
ATOM     23  H   UNL A   1       5.144  -1.504 -47.713  0.00  0.00    +0.292 HD
ENDBRANCH  11  22
TORSDOF 4
ENDMDL
MODEL 4
REMARK VINA RESULT:      -7.1      3.176      3.919
REMARK  Name = GEN
REMARK  4 active torsions:
REMARK  status: ('A' for Active; 'I' for Inactive)
REMARK    1  A    between atoms: C_2  and  O_3
REMARK    2  A    between atoms: C_5  and  O_6
REMARK    3  A    between atoms: C_10  and  C_14
REMARK    4  A    between atoms: C_17  and  O_18
REMARK                            x       y       z     vdW  Elec       q    Type
REMARK                         _______ _______ _______ _____ _____    ______ ____
ROOT
ATOM      1  C   UNL A   1      -3.185  -3.326 -50.176  0.00  0.00    +0.092 A 
ATOM      2  C   UNL A   1      -1.848  -3.646 -50.349  0.00  0.00    +0.145 A 
ATOM      3  O   UNL A   1      -1.022  -3.767 -49.289  0.00  0.00    -0.462 OA
ATOM      4  C   UNL A   1       0.309  -3.790 -49.410  0.00  0.00    +0.208 A 
ATOM      5  C   UNL A   1       0.921  -3.988 -50.606  0.00  0.00    +0.064 A 
ATOM      6  C   UNL A   1       0.077  -4.168 -51.803  0.00  0.00    +0.204 A 
ATOM      7  O   UNL A   1       0.537  -4.562 -52.860  0.00  0.00    -0.286 OA
ATOM      8  C   UNL A   1      -1.351  -3.850 -51.649  0.00  0.00    +0.106 A 
ATOM      9  C   UNL A   1      -2.200  -3.740 -52.756  0.00  0.00    +0.135 A 
ATOM     10  C   UNL A   1      -3.531  -3.422 -52.562  0.00  0.00    +0.091 A 
ATOM     11  C   UNL A   1      -4.020  -3.214 -51.277  0.00  0.00    +0.124 A 
ENDROOT
BRANCH   5  12
ATOM     12  C   UNL A   1       2.400  -4.020 -50.709  0.00  0.00    -0.011 A 
ATOM     13  C   UNL A   1       3.081  -5.231 -50.604  0.00  0.00    +0.012 A 
ATOM     14  C   UNL A   1       4.456  -5.258 -50.706  0.00  0.00    +0.046 A 
ATOM     15  C   UNL A   1       5.162  -4.079 -50.902  0.00  0.00    +0.117 A 
ATOM     16  C   UNL A   1       4.488  -2.873 -51.008  0.00  0.00    +0.046 A 
ATOM     17  C   UNL A   1       3.112  -2.839 -50.912  0.00  0.00    +0.012 A 
BRANCH  15  18
ATOM     18  O   UNL A   1       6.518  -4.109 -50.997  0.00  0.00    -0.507 OA
ATOM     19  H   UNL A   1       6.749  -4.934 -51.444  0.00  0.00    +0.292 HD
ENDBRANCH  15  18
ENDBRANCH   5  12
BRANCH   9  20
ATOM     20  O   UNL A   1      -1.721  -3.945 -54.009  0.00  0.00    -0.506 OA
ATOM     21  H   UNL A   1      -2.198  -4.703 -54.371  0.00  0.00    +0.292 HD
ENDBRANCH   9  20
BRANCH  11  22
ATOM     22  O   UNL A   1      -5.327  -2.897 -51.099  0.00  0.00    -0.507 OA
ATOM     23  H   UNL A   1      -5.396  -2.471 -50.233  0.00  0.00    +0.292 HD
ENDBRANCH  11  22
TORSDOF 4
ENDMDL
MODEL 5
REMARK VINA RESULT:      -7.0      1.639      6.653
REMARK  Name = GEN
REMARK  4 active torsions:
REMARK  status: ('A' for Active; 'I' for Inactive)
REMARK    1  A    between atoms: C_2  and  O_3
REMARK    2  A    between atoms: C_5  and  O_6
REMARK    3  A    between atoms: C_10  and  C_14
REMARK    4  A    between atoms: C_17  and  O_18
REMARK                            x       y       z     vdW  Elec       q    Type
REMARK                         _______ _______ _______ _____ _____    ______ ____
ROOT
ATOM      1  C   UNL A   1       0.582  -2.936 -48.409  0.00  0.00    +0.092 A 
ATOM      2  C   UNL A   1      -0.233  -3.159 -49.508  0.00  0.00    +0.145 A 
ATOM      3  O   UNL A   1      -1.414  -3.798 -49.376  0.00  0.00    -0.462 OA
ATOM      4  C   UNL A   1      -2.092  -4.285 -50.421  0.00  0.00    +0.208 A 
ATOM      5  C   UNL A   1      -1.801  -3.926 -51.699  0.00  0.00    +0.064 A 
ATOM      6  C   UNL A   1      -0.693  -2.980 -51.926  0.00  0.00    +0.204 A 
ATOM      7  O   UNL A   1      -0.514  -2.447 -53.008  0.00  0.00    -0.286 OA
ATOM      8  C   UNL A   1       0.182  -2.710 -50.774  0.00  0.00    +0.106 A 
ATOM      9  C   UNL A   1       1.400  -2.035 -50.922  0.00  0.00    +0.135 A 
ATOM     10  C   UNL A   1       2.195  -1.820 -49.813  0.00  0.00    +0.091 A 
ATOM     11  C   UNL A   1       1.788  -2.271 -48.562  0.00  0.00    +0.124 A 
ENDROOT
BRANCH   5  12
ATOM     12  C   UNL A   1      -2.577  -4.474 -52.838  0.00  0.00    -0.011 A 
ATOM     13  C   UNL A   1      -3.831  -3.949 -53.145  0.00  0.00    +0.012 A 
ATOM     14  C   UNL A   1      -4.548  -4.457 -54.208  0.00  0.00    +0.046 A 
ATOM     15  C   UNL A   1      -4.026  -5.496 -54.966  0.00  0.00    +0.117 A 
ATOM     16  C   UNL A   1      -2.778  -6.020 -54.664  0.00  0.00    +0.046 A 
ATOM     17  C   UNL A   1      -2.054  -5.513 -53.605  0.00  0.00    +0.012 A 
BRANCH  15  18
ATOM     18  O   UNL A   1      -4.736  -5.998 -56.011  0.00  0.00    -0.507 OA
ATOM     19  H   UNL A   1      -5.644  -6.116 -55.700  0.00  0.00    +0.292 HD
ENDBRANCH  15  18
ENDBRANCH   5  12
BRANCH   9  20
ATOM     20  O   UNL A   1       1.794  -1.595 -52.144  0.00  0.00    -0.506 OA
ATOM     21  H   UNL A   1       1.686  -0.635 -52.143  0.00  0.00    +0.292 HD
ENDBRANCH   9  20
BRANCH  11  22
ATOM     22  O   UNL A   1       2.580  -2.059 -47.481  0.00  0.00    -0.507 OA
ATOM     23  H   UNL A   1       3.276  -1.449 -47.760  0.00  0.00    +0.292 HD
ENDBRANCH  11  22
TORSDOF 4
ENDMDL
MODEL 6
REMARK VINA RESULT:      -6.9      3.315      4.257
REMARK  Name = GEN
REMARK  4 active torsions:
REMARK  status: ('A' for Active; 'I' for Inactive)
REMARK    1  A    between atoms: C_2  and  O_3
REMARK    2  A    between atoms: C_5  and  O_6
REMARK    3  A    between atoms: C_10  and  C_14
REMARK    4  A    between atoms: C_17  and  O_18
REMARK                            x       y       z     vdW  Elec       q    Type
REMARK                         _______ _______ _______ _____ _____    ______ ____
ROOT
ATOM      1  C   UNL A   1      -2.173  -4.424 -53.781  0.00  0.00    +0.092 A 
ATOM      2  C   UNL A   1      -0.982  -4.192 -53.110  0.00  0.00    +0.145 A 
ATOM      3  O   UNL A   1       0.158  -3.948 -53.789  0.00  0.00    -0.462 OA
ATOM      4  C   UNL A   1       1.365  -4.002 -53.215  0.00  0.00    +0.208 A 
ATOM      5  C   UNL A   1       1.521  -4.015 -51.866  0.00  0.00    +0.064 A 
ATOM      6  C   UNL A   1       0.313  -3.982 -51.021  0.00  0.00    +0.204 A 
ATOM      7  O   UNL A   1       0.374  -3.774 -49.821  0.00  0.00    -0.286 OA
ATOM      8  C   UNL A   1      -0.969  -4.211 -51.704  0.00  0.00    +0.106 A 
ATOM      9  C   UNL A   1      -2.149  -4.450 -50.989  0.00  0.00    +0.135 A 
ATOM     10  C   UNL A   1      -3.326  -4.677 -51.676  0.00  0.00    +0.091 A 
ATOM     11  C   UNL A   1      -3.336  -4.665 -53.067  0.00  0.00    +0.124 A 
ENDROOT
BRANCH   5  12
ATOM     12  C   UNL A   1       2.873  -4.064 -51.257  0.00  0.00    -0.011 A 
ATOM     13  C   UNL A   1       3.551  -2.882 -50.968  0.00  0.00    +0.012 A 
ATOM     14  C   UNL A   1       4.805  -2.931 -50.397  0.00  0.00    +0.046 A 
ATOM     15  C   UNL A   1       5.396  -4.155 -50.119  0.00  0.00    +0.117 A 
ATOM     16  C   UNL A   1       4.723  -5.334 -50.404  0.00  0.00    +0.046 A 
ATOM     17  C   UNL A   1       3.466  -5.292 -50.971  0.00  0.00    +0.012 A 
BRANCH  15  18
ATOM     18  O   UNL A   1       6.635  -4.200 -49.560  0.00  0.00    -0.507 OA
ATOM     19  H   UNL A   1       7.269  -4.060 -50.275  0.00  0.00    +0.292 HD
ENDBRANCH  15  18
ENDBRANCH   5  12
BRANCH   9  20
ATOM     20  O   UNL A   1      -2.136  -4.459 -49.632  0.00  0.00    -0.506 OA
ATOM     21  H   UNL A   1      -3.057  -4.436 -49.343  0.00  0.00    +0.292 HD
ENDBRANCH   9  20
BRANCH  11  22
ATOM     22  O   UNL A   1      -4.497  -4.894 -53.732  0.00  0.00    -0.507 OA
ATOM     23  H   UNL A   1      -5.068  -4.130 -53.569  0.00  0.00    +0.292 HD
ENDBRANCH  11  22
TORSDOF 4
ENDMDL
MODEL 7
REMARK VINA RESULT:      -6.9      1.224      2.315
REMARK  Name = GEN
REMARK  4 active torsions:
REMARK  status: ('A' for Active; 'I' for Inactive)
REMARK    1  A    between atoms: C_2  and  O_3
REMARK    2  A    between atoms: C_5  and  O_6
REMARK    3  A    between atoms: C_10  and  C_14
REMARK    4  A    between atoms: C_17  and  O_18
REMARK                            x       y       z     vdW  Elec       q    Type
REMARK                         _______ _______ _______ _____ _____    ______ ____
ROOT
ATOM      1  C   UNL A   1      -2.816  -3.561 -54.613  0.00  0.00    +0.092 A 
ATOM      2  C   UNL A   1      -2.261  -3.145 -53.413  0.00  0.00    +0.145 A 
ATOM      3  O   UNL A   1      -0.927  -2.987 -53.285  0.00  0.00    -0.462 OA
ATOM      4  C   UNL A   1      -0.325  -2.869 -52.096  0.00  0.00    +0.208 A 
ATOM      5  C   UNL A   1      -1.020  -2.606 -50.960  0.00  0.00    +0.064 A 
ATOM      6  C   UNL A   1      -2.485  -2.464 -51.052  0.00  0.00    +0.204 A 
ATOM      7  O   UNL A   1      -3.147  -2.018 -50.129  0.00  0.00    -0.286 OA
ATOM      8  C   UNL A   1      -3.104  -2.883 -52.318  0.00  0.00    +0.106 A 
ATOM      9  C   UNL A   1      -4.491  -3.032 -52.442  0.00  0.00    +0.135 A 
ATOM     10  C   UNL A   1      -5.024  -3.445 -53.648  0.00  0.00    +0.091 A 
ATOM     11  C   UNL A   1      -4.189  -3.710 -54.728  0.00  0.00    +0.124 A 
ENDROOT
BRANCH   5  12
ATOM     12  C   UNL A   1      -0.325  -2.469 -49.657  0.00  0.00    -0.011 A 
ATOM     13  C   UNL A   1       0.075  -3.605 -48.956  0.00  0.00    +0.012 A 
ATOM     14  C   UNL A   1       0.726  -3.475 -47.748  0.00  0.00    +0.046 A 
ATOM     15  C   UNL A   1       0.975  -2.214 -47.224  0.00  0.00    +0.117 A 
ATOM     16  C   UNL A   1       0.580  -1.081 -47.919  0.00  0.00    +0.046 A 
ATOM     17  C   UNL A   1      -0.067  -1.204 -49.131  0.00  0.00    +0.012 A 
BRANCH  15  18
ATOM     18  O   UNL A   1       1.614  -2.089 -46.031  0.00  0.00    -0.507 OA
ATOM     19  H   UNL A   1       1.123  -1.432 -45.519  0.00  0.00    +0.292 HD
ENDBRANCH  15  18
ENDBRANCH   5  12
BRANCH   9  20
ATOM     20  O   UNL A   1      -5.304  -2.770 -51.388  0.00  0.00    -0.506 OA
ATOM     21  H   UNL A   1      -6.185  -2.604 -51.748  0.00  0.00    +0.292 HD
ENDBRANCH   9  20
BRANCH  11  22
ATOM     22  O   UNL A   1      -4.723  -4.121 -55.906  0.00  0.00    -0.507 OA
ATOM     23  H   UNL A   1      -4.934  -3.323 -56.410  0.00  0.00    +0.292 HD
ENDBRANCH  11  22
TORSDOF 4
ENDMDL
MODEL 8
REMARK VINA RESULT:      -6.8      2.806      7.036
REMARK  Name = GEN
REMARK  4 active torsions:
REMARK  status: ('A' for Active; 'I' for Inactive)
REMARK    1  A    between atoms: C_2  and  O_3
REMARK    2  A    between atoms: C_5  and  O_6
REMARK    3  A    between atoms: C_10  and  C_14
REMARK    4  A    between atoms: C_17  and  O_18
REMARK                            x       y       z     vdW  Elec       q    Type
REMARK                         _______ _______ _______ _____ _____    ______ ____
ROOT
ATOM      1  C   UNL A   1       2.780  -1.525 -49.392  0.00  0.00    +0.092 A 
ATOM      2  C   UNL A   1       2.008  -2.193 -50.330  0.00  0.00    +0.145 A 
ATOM      3  O   UNL A   1       0.811  -1.704 -50.715  0.00  0.00    -0.462 OA
ATOM      4  C   UNL A   1      -0.086  -2.437 -51.385  0.00  0.00    +0.208 A 
ATOM      5  C   UNL A   1       0.244  -3.613 -51.978  0.00  0.00    +0.064 A 
ATOM      6  C   UNL A   1       1.634  -4.092 -51.860  0.00  0.00    +0.204 A 
ATOM      7  O   UNL A   1       2.056  -5.014 -52.538  0.00  0.00    -0.286 OA
ATOM      8  C   UNL A   1       2.484  -3.394 -50.884  0.00  0.00    +0.106 A 
ATOM      9  C   UNL A   1       3.731  -3.905 -50.501  0.00  0.00    +0.135 A 
ATOM     10  C   UNL A   1       4.486  -3.222 -49.567  0.00  0.00    +0.091 A 
ATOM     11  C   UNL A   1       4.011  -2.038 -49.014  0.00  0.00    +0.124 A 
ENDROOT
BRANCH   5  12
ATOM     12  C   UNL A   1      -0.769  -4.399 -52.724  0.00  0.00    -0.011 A 
ATOM     13  C   UNL A   1      -1.652  -5.230 -52.038  0.00  0.00    +0.012 A 
ATOM     14  C   UNL A   1      -2.596  -5.955 -52.733  0.00  0.00    +0.046 A 
ATOM     15  C   UNL A   1      -2.661  -5.866 -54.117  0.00  0.00    +0.117 A 
ATOM     16  C   UNL A   1      -1.785  -5.040 -54.803  0.00  0.00    +0.046 A 
ATOM     17  C   UNL A   1      -0.841  -4.308 -54.113  0.00  0.00    +0.012 A 
BRANCH  15  18
ATOM     18  O   UNL A   1      -3.590  -6.586 -54.800  0.00  0.00    -0.507 OA
ATOM     19  H   UNL A   1      -4.455  -6.240 -54.543  0.00  0.00    +0.292 HD
ENDBRANCH  15  18
ENDBRANCH   5  12
BRANCH   9  20
ATOM     20  O   UNL A   1       4.193  -5.060 -51.043  0.00  0.00    -0.506 OA
ATOM     21  H   UNL A   1       3.459  -5.688 -51.030  0.00  0.00    +0.292 HD
ENDBRANCH   9  20
BRANCH  11  22
ATOM     22  O   UNL A   1       4.759  -1.378 -48.094  0.00  0.00    -0.507 OA
ATOM     23  H   UNL A   1       4.348  -1.538 -47.233  0.00  0.00    +0.292 HD
ENDBRANCH  11  22
TORSDOF 4
ENDMDL
MODEL 9
REMARK VINA RESULT:      -6.7      2.100      2.356
REMARK  Name = GEN
REMARK  4 active torsions:
REMARK  status: ('A' for Active; 'I' for Inactive)
REMARK    1  A    between atoms: C_2  and  O_3
REMARK    2  A    between atoms: C_5  and  O_6
REMARK    3  A    between atoms: C_10  and  C_14
REMARK    4  A    between atoms: C_17  and  O_18
REMARK                            x       y       z     vdW  Elec       q    Type
REMARK                         _______ _______ _______ _____ _____    ______ ____
ROOT
ATOM      1  C   UNL A   1      -4.037  -3.772 -52.500  0.00  0.00    +0.092 A 
ATOM      2  C   UNL A   1      -2.788  -3.554 -51.937  0.00  0.00    +0.145 A 
ATOM      3  O   UNL A   1      -2.661  -2.883 -50.774  0.00  0.00    -0.462 OA
ATOM      4  C   UNL A   1      -1.490  -2.403 -50.342  0.00  0.00    +0.208 A 
ATOM      5  C   UNL A   1      -0.307  -2.800 -50.879  0.00  0.00    +0.064 A 
ATOM      6  C   UNL A   1      -0.331  -3.780 -51.981  0.00  0.00    +0.204 A 
ATOM      7  O   UNL A   1       0.680  -4.342 -52.364  0.00  0.00    -0.286 OA
ATOM      8  C   UNL A   1      -1.644  -4.044 -52.591  0.00  0.00    +0.106 A 
ATOM      9  C   UNL A   1      -1.764  -4.754 -53.792  0.00  0.00    +0.135 A 
ATOM     10  C   UNL A   1      -3.018  -4.962 -54.335  0.00  0.00    +0.091 A 
ATOM     11  C   UNL A   1      -4.149  -4.471 -53.691  0.00  0.00    +0.124 A 
ENDROOT
BRANCH   5  12
ATOM     12  C   UNL A   1       0.978  -2.260 -50.372  0.00  0.00    -0.011 A 
ATOM     13  C   UNL A   1       1.731  -1.394 -51.162  0.00  0.00    +0.012 A 
ATOM     14  C   UNL A   1       2.923  -0.889 -50.687  0.00  0.00    +0.046 A 
ATOM     15  C   UNL A   1       3.377  -1.250 -49.426  0.00  0.00    +0.117 A 
ATOM     16  C   UNL A   1       2.630  -2.110 -48.636  0.00  0.00    +0.046 A 
ATOM     17  C   UNL A   1       1.434  -2.615 -49.104  0.00  0.00    +0.012 A 
BRANCH  15  18
ATOM     18  O   UNL A   1       4.554  -0.754 -48.961  0.00  0.00    -0.507 OA
ATOM     19  H   UNL A   1       5.206  -1.464 -49.037  0.00  0.00    +0.292 HD
ENDBRANCH  15  18
ENDBRANCH   5  12
BRANCH   9  20
ATOM     20  O   UNL A   1      -0.659  -5.233 -54.417  0.00  0.00    -0.506 OA
ATOM     21  H   UNL A   1      -0.522  -4.686 -55.201  0.00  0.00    +0.292 HD
ENDBRANCH   9  20
BRANCH  11  22
ATOM     22  O   UNL A   1      -5.374  -4.677 -54.236  0.00  0.00    -0.507 OA
ATOM     23  H   UNL A   1      -5.641  -3.844 -54.647  0.00  0.00    +0.292 HD
ENDBRANCH  11  22
TORSDOF 4
ENDMDL
MODEL 10
REMARK VINA RESULT:      -6.7      1.585      6.907
REMARK  Name = GEN
REMARK  4 active torsions:
REMARK  status: ('A' for Active; 'I' for Inactive)
REMARK    1  A    between atoms: C_2  and  O_3
REMARK    2  A    between atoms: C_5  and  O_6
REMARK    3  A    between atoms: C_10  and  C_14
REMARK    4  A    between atoms: C_17  and  O_18
REMARK                            x       y       z     vdW  Elec       q    Type
REMARK                         _______ _______ _______ _____ _____    ______ ____
ROOT
ATOM      1  C   UNL A   1       1.449  -3.019 -49.484  0.00  0.00    +0.092 A 
ATOM      2  C   UNL A   1       0.390  -3.129 -50.372  0.00  0.00    +0.145 A 
ATOM      3  O   UNL A   1       0.350  -4.124 -51.282  0.00  0.00    -0.462 OA
ATOM      4  C   UNL A   1      -0.483  -4.112 -52.329  0.00  0.00    +0.208 A 
ATOM      5  C   UNL A   1      -1.539  -3.261 -52.399  0.00  0.00    +0.064 A 
ATOM      6  C   UNL A   1      -1.753  -2.317 -51.287  0.00  0.00    +0.204 A 
ATOM      7  O   UNL A   1      -2.787  -1.681 -51.173  0.00  0.00    -0.286 OA
ATOM      8  C   UNL A   1      -0.653  -2.188 -50.318  0.00  0.00    +0.106 A 
ATOM      9  C   UNL A   1      -0.629  -1.158 -49.370  0.00  0.00    +0.135 A 
ATOM     10  C   UNL A   1       0.435  -1.068 -48.492  0.00  0.00    +0.091 A 
ATOM     11  C   UNL A   1       1.470  -1.995 -48.551  0.00  0.00    +0.124 A 
ENDROOT
BRANCH   5  12
ATOM     12  C   UNL A   1      -2.452  -3.277 -53.568  0.00  0.00    -0.011 A 
ATOM     13  C   UNL A   1      -2.269  -2.370 -54.609  0.00  0.00    +0.012 A 
ATOM     14  C   UNL A   1      -3.116  -2.391 -55.697  0.00  0.00    +0.046 A 
ATOM     15  C   UNL A   1      -4.157  -3.308 -55.750  0.00  0.00    +0.117 A 
ATOM     16  C   UNL A   1      -4.342  -4.212 -54.716  0.00  0.00    +0.046 A 
ATOM     17  C   UNL A   1      -3.495  -4.200 -53.627  0.00  0.00    +0.012 A 
BRANCH  15  18
ATOM     18  O   UNL A   1      -4.994  -3.323 -56.822  0.00  0.00    -0.507 OA
ATOM     19  H   UNL A   1      -5.895  -3.337 -56.472  0.00  0.00    +0.292 HD
ENDBRANCH  15  18
ENDBRANCH   5  12
BRANCH   9  20
ATOM     20  O   UNL A   1      -1.641  -0.256 -49.314  0.00  0.00    -0.506 OA
ATOM     21  H   UNL A   1      -1.238   0.607 -49.152  0.00  0.00    +0.292 HD
ENDBRANCH   9  20
BRANCH  11  22
ATOM     22  O   UNL A   1       2.512  -1.894 -47.688  0.00  0.00    -0.507 OA
ATOM     23  H   UNL A   1       2.848  -2.790 -47.549  0.00  0.00    +0.292 HD
ENDBRANCH  11  22
TORSDOF 4
ENDMDL
MODEL 11
REMARK VINA RESULT:      -6.7      2.401      3.076
REMARK  Name = GEN
REMARK  4 active torsions:
REMARK  status: ('A' for Active; 'I' for Inactive)
REMARK    1  A    between atoms: C_2  and  O_3
REMARK    2  A    between atoms: C_5  and  O_6
REMARK    3  A    between atoms: C_10  and  C_14
REMARK    4  A    between atoms: C_17  and  O_18
REMARK                            x       y       z     vdW  Elec       q    Type
REMARK                         _______ _______ _______ _____ _____    ______ ____
ROOT
ATOM      1  C   UNL A   1      -4.837  -3.110 -54.640  0.00  0.00    +0.092 A 
ATOM      2  C   UNL A   1      -3.737  -3.323 -53.824  0.00  0.00    +0.145 A 
ATOM      3  O   UNL A   1      -3.301  -2.360 -52.984  0.00  0.00    -0.462 OA
ATOM      4  C   UNL A   1      -2.100  -2.404 -52.397  0.00  0.00    +0.208 A 
ATOM      5  C   UNL A   1      -1.356  -3.540 -52.364  0.00  0.00    +0.064 A 
ATOM      6  C   UNL A   1      -1.895  -4.750 -53.011  0.00  0.00    +0.204 A 
ATOM      7  O   UNL A   1      -1.395  -5.849 -52.838  0.00  0.00    -0.286 OA
ATOM      8  C   UNL A   1      -3.072  -4.561 -53.873  0.00  0.00    +0.106 A 
ATOM      9  C   UNL A   1      -3.522  -5.572 -54.731  0.00  0.00    +0.135 A 
ATOM     10  C   UNL A   1      -4.622  -5.340 -55.535  0.00  0.00    +0.091 A 
ATOM     11  C   UNL A   1      -5.275  -4.113 -55.490  0.00  0.00    +0.124 A 
ENDROOT
BRANCH   5  12
ATOM     12  C   UNL A   1      -0.032  -3.562 -51.695  0.00  0.00    -0.011 A 
ATOM     13  C   UNL A   1       0.048  -3.599 -50.305  0.00  0.00    +0.012 A 
ATOM     14  C   UNL A   1       1.280  -3.625 -49.687  0.00  0.00    +0.046 A 
ATOM     15  C   UNL A   1       2.440  -3.605 -50.447  0.00  0.00    +0.117 A 
ATOM     16  C   UNL A   1       2.365  -3.570 -51.832  0.00  0.00    +0.046 A 
ATOM     17  C   UNL A   1       1.136  -3.549 -52.456  0.00  0.00    +0.012 A 
BRANCH  15  18
ATOM     18  O   UNL A   1       3.654  -3.627 -49.835  0.00  0.00    -0.507 OA
ATOM     19  H   UNL A   1       3.876  -2.710 -49.624  0.00  0.00    +0.292 HD
ENDBRANCH  15  18
ENDBRANCH   5  12
BRANCH   9  20
ATOM     20  O   UNL A   1      -2.884  -6.769 -54.771  0.00  0.00    -0.506 OA
ATOM     21  H   UNL A   1      -2.087  -6.644 -55.302  0.00  0.00    +0.292 HD
ENDBRANCH   9  20
BRANCH  11  22
ATOM     22  O   UNL A   1      -6.351  -3.895 -56.288  0.00  0.00    -0.507 OA
ATOM     23  H   UNL A   1      -6.295  -4.534 -57.012  0.00  0.00    +0.292 HD
ENDBRANCH  11  22
TORSDOF 4
ENDMDL
MODEL 12
REMARK VINA RESULT:      -6.6      1.540      1.657
REMARK  Name = GEN
REMARK  4 active torsions:
REMARK  status: ('A' for Active; 'I' for Inactive)
REMARK    1  A    between atoms: C_2  and  O_3
REMARK    2  A    between atoms: C_5  and  O_6
REMARK    3  A    between atoms: C_10  and  C_14
REMARK    4  A    between atoms: C_17  and  O_18
REMARK                            x       y       z     vdW  Elec       q    Type
REMARK                         _______ _______ _______ _____ _____    ______ ____
ROOT
ATOM      1  C   UNL A   1      -4.641  -1.958 -54.592  0.00  0.00    +0.092 A 
ATOM      2  C   UNL A   1      -3.763  -2.274 -53.566  0.00  0.00    +0.145 A 
ATOM      3  O   UNL A   1      -4.184  -2.322 -52.285  0.00  0.00    -0.462 OA
ATOM      4  C   UNL A   1      -3.340  -2.337 -51.248  0.00  0.00    +0.208 A 
ATOM      5  C   UNL A   1      -2.016  -2.601 -51.401  0.00  0.00    +0.064 A 
ATOM      6  C   UNL A   1      -1.506  -2.862 -52.760  0.00  0.00    +0.204 A 
ATOM      7  O   UNL A   1      -0.391  -3.314 -52.952  0.00  0.00    -0.286 OA
ATOM      8  C   UNL A   1      -2.419  -2.550 -53.871  0.00  0.00    +0.106 A 
ATOM      9  C   UNL A   1      -1.973  -2.517 -55.198  0.00  0.00    +0.135 A 
ATOM     10  C   UNL A   1      -2.865  -2.202 -56.206  0.00  0.00    +0.091 A 
ATOM     11  C   UNL A   1      -4.193  -1.922 -55.902  0.00  0.00    +0.124 A 
ENDROOT
BRANCH   5  12
ATOM     12  C   UNL A   1      -1.104  -2.623 -50.231  0.00  0.00    -0.011 A 
ATOM     13  C   UNL A   1      -0.720  -3.838 -49.668  0.00  0.00    +0.012 A 
ATOM     14  C   UNL A   1       0.132  -3.855 -48.584  0.00  0.00    +0.046 A 
ATOM     15  C   UNL A   1       0.599  -2.664 -48.047  0.00  0.00    +0.117 A 
ATOM     16  C   UNL A   1       0.220  -1.452 -48.606  0.00  0.00    +0.046 A 
ATOM     17  C   UNL A   1      -0.628  -1.428 -49.694  0.00  0.00    +0.012 A 
BRANCH  15  18
ATOM     18  O   UNL A   1       1.435  -2.684 -46.976  0.00  0.00    -0.507 OA
ATOM     19  H   UNL A   1       1.043  -3.282 -46.326  0.00  0.00    +0.292 HD
ENDBRANCH  15  18
ENDBRANCH   5  12
BRANCH   9  20
ATOM     20  O   UNL A   1      -0.677  -2.792 -55.491  0.00  0.00    -0.506 OA
ATOM     21  H   UNL A   1      -0.155  -2.530 -54.722  0.00  0.00    +0.292 HD
ENDBRANCH   9  20
BRANCH  11  22
ATOM     22  O   UNL A   1      -5.058  -1.609 -56.900  0.00  0.00    -0.507 OA
ATOM     23  H   UNL A   1      -4.819  -2.158 -57.659  0.00  0.00    +0.292 HD
ENDBRANCH  11  22
TORSDOF 4
ENDMDL
MODEL 13
REMARK VINA RESULT:      -6.5      1.815      6.965
REMARK  Name = GEN
REMARK  4 active torsions:
REMARK  status: ('A' for Active; 'I' for Inactive)
REMARK    1  A    between atoms: C_2  and  O_3
REMARK    2  A    between atoms: C_5  and  O_6
REMARK    3  A    between atoms: C_10  and  C_14
REMARK    4  A    between atoms: C_17  and  O_18
REMARK                            x       y       z     vdW  Elec       q    Type
REMARK                         _______ _______ _______ _____ _____    ______ ____
ROOT
ATOM      1  C   UNL A   1       1.039  -3.299 -50.160  0.00  0.00    +0.092 A 
ATOM      2  C   UNL A   1       0.056  -3.263 -51.137  0.00  0.00    +0.145 A 
ATOM      3  O   UNL A   1       0.151  -4.030 -52.243  0.00  0.00    -0.462 OA
ATOM      4  C   UNL A   1      -0.604  -3.827 -53.328  0.00  0.00    +0.208 A 
ATOM      5  C   UNL A   1      -1.710  -3.040 -53.300  0.00  0.00    +0.064 A 
ATOM      6  C   UNL A   1      -2.069  -2.382 -52.030  0.00  0.00    +0.204 A 
ATOM      7  O   UNL A   1      -3.151  -1.844 -51.868  0.00  0.00    -0.286 OA
ATOM      8  C   UNL A   1      -1.053  -2.415 -50.966  0.00  0.00    +0.106 A 
ATOM      9  C   UNL A   1      -1.169  -1.624 -49.817  0.00  0.00    +0.135 A 
ATOM     10  C   UNL A   1      -0.180  -1.677 -48.854  0.00  0.00    +0.091 A 
ATOM     11  C   UNL A   1       0.921  -2.510 -49.026  0.00  0.00    +0.124 A 
ENDROOT
BRANCH   5  12
ATOM     12  C   UNL A   1      -2.535  -2.842 -54.517  0.00  0.00    -0.011 A 
ATOM     13  C   UNL A   1      -3.662  -3.631 -54.731  0.00  0.00    +0.012 A 
ATOM     14  C   UNL A   1      -4.431  -3.442 -55.860  0.00  0.00    +0.046 A 
ATOM     15  C   UNL A   1      -4.075  -2.473 -56.788  0.00  0.00    +0.117 A 
ATOM     16  C   UNL A   1      -2.954  -1.685 -56.578  0.00  0.00    +0.046 A 
ATOM     17  C   UNL A   1      -2.185  -1.866 -55.448  0.00  0.00    +0.012 A 
BRANCH  15  18
ATOM     18  O   UNL A   1      -4.832  -2.291 -57.903  0.00  0.00    -0.507 OA
ATOM     19  H   UNL A   1      -4.685  -3.060 -58.469  0.00  0.00    +0.292 HD
ENDBRANCH  15  18
ENDBRANCH   5  12
BRANCH   9  20
ATOM     20  O   UNL A   1      -2.244  -0.813 -49.651  0.00  0.00    -0.506 OA
ATOM     21  H   UNL A   1      -1.906   0.089 -49.583  0.00  0.00    +0.292 HD
ENDBRANCH   9  20
BRANCH  11  22
ATOM     22  O   UNL A   1       1.889  -2.550 -48.076  0.00  0.00    -0.507 OA
ATOM     23  H   UNL A   1       2.119  -3.480 -47.951  0.00  0.00    +0.292 HD
ENDBRANCH  11  22
TORSDOF 4
ENDMDL
MODEL 14
REMARK VINA RESULT:      -6.4      2.312      6.932
REMARK  Name = GEN
REMARK  4 active torsions:
REMARK  status: ('A' for Active; 'I' for Inactive)
REMARK    1  A    between atoms: C_2  and  O_3
REMARK    2  A    between atoms: C_5  and  O_6
REMARK    3  A    between atoms: C_10  and  C_14
REMARK    4  A    between atoms: C_17  and  O_18
REMARK                            x       y       z     vdW  Elec       q    Type
REMARK                         _______ _______ _______ _____ _____    ______ ____
ROOT
ATOM      1  C   UNL A   1       3.138  -3.555 -51.249  0.00  0.00    +0.092 A 
ATOM      2  C   UNL A   1       1.878  -3.651 -51.818  0.00  0.00    +0.145 A 
ATOM      3  O   UNL A   1       1.637  -4.516 -52.825  0.00  0.00    -0.462 OA
ATOM      4  C   UNL A   1       0.541  -4.448 -53.588  0.00  0.00    +0.208 A 
ATOM      5  C   UNL A   1      -0.539  -3.705 -53.232  0.00  0.00    +0.064 A 
ATOM      6  C   UNL A   1      -0.481  -2.943 -51.971  0.00  0.00    +0.204 A 
ATOM      7  O   UNL A   1      -1.475  -2.435 -51.480  0.00  0.00    -0.286 OA
ATOM      8  C   UNL A   1       0.840  -2.835 -51.333  0.00  0.00    +0.106 A 
ATOM      9  C   UNL A   1       1.075  -1.943 -50.280  0.00  0.00    +0.135 A 
ATOM     10  C   UNL A   1       2.338  -1.865 -49.725  0.00  0.00    +0.091 A 
ATOM     11  C   UNL A   1       3.365  -2.667 -50.209  0.00  0.00    +0.124 A 
ENDROOT
BRANCH   5  12
ATOM     12  C   UNL A   1      -1.747  -3.657 -54.093  0.00  0.00    -0.011 A 
ATOM     13  C   UNL A   1      -2.711  -4.657 -53.998  0.00  0.00    +0.012 A 
ATOM     14  C   UNL A   1      -3.835  -4.607 -54.796  0.00  0.00    +0.046 A 
ATOM     15  C   UNL A   1      -4.001  -3.567 -55.699  0.00  0.00    +0.117 A 
ATOM     16  C   UNL A   1      -3.044  -2.568 -55.795  0.00  0.00    +0.046 A 
ATOM     17  C   UNL A   1      -1.920  -2.610 -54.996  0.00  0.00    +0.012 A 
BRANCH  15  18
ATOM     18  O   UNL A   1      -5.108  -3.522 -56.487  0.00  0.00    -0.507 OA
ATOM     19  H   UNL A   1      -4.800  -3.395 -57.394  0.00  0.00    +0.292 HD
ENDBRANCH  15  18
ENDBRANCH   5  12
BRANCH   9  20
ATOM     20  O   UNL A   1       0.070  -1.162 -49.808  0.00  0.00    -0.506 OA
ATOM     21  H   UNL A   1       0.249  -0.263 -50.111  0.00  0.00    +0.292 HD
ENDBRANCH   9  20
BRANCH  11  22
ATOM     22  O   UNL A   1       4.603  -2.578 -49.660  0.00  0.00    -0.507 OA
ATOM     23  H   UNL A   1       4.903  -3.483 -49.500  0.00  0.00    +0.292 HD
ENDBRANCH  11  22
TORSDOF 4
ENDMDL
MODEL 15
REMARK VINA RESULT:      -6.4      1.740      7.097
REMARK  Name = GEN
REMARK  4 active torsions:
REMARK  status: ('A' for Active; 'I' for Inactive)
REMARK    1  A    between atoms: C_2  and  O_3
REMARK    2  A    between atoms: C_5  and  O_6
REMARK    3  A    between atoms: C_10  and  C_14
REMARK    4  A    between atoms: C_17  and  O_18
REMARK                            x       y       z     vdW  Elec       q    Type
REMARK                         _______ _______ _______ _____ _____    ______ ____
ROOT
ATOM      1  C   UNL A   1       1.265  -3.197 -50.909  0.00  0.00    +0.092 A 
ATOM      2  C   UNL A   1       0.204  -3.655 -51.675  0.00  0.00    +0.145 A 
ATOM      3  O   UNL A   1       0.276  -3.661 -53.023  0.00  0.00    -0.462 OA
ATOM      4  C   UNL A   1      -0.800  -3.818 -53.801  0.00  0.00    +0.208 A 
ATOM      5  C   UNL A   1      -1.984  -4.269 -53.313  0.00  0.00    +0.064 A 
ATOM      6  C   UNL A   1      -2.075  -4.579 -51.874  0.00  0.00    +0.204 A 
ATOM      7  O   UNL A   1      -3.023  -5.187 -51.406  0.00  0.00    -0.286 OA
ATOM      8  C   UNL A   1      -0.958  -4.119 -51.034  0.00  0.00    +0.106 A 
ATOM      9  C   UNL A   1      -1.040  -4.129 -49.637  0.00  0.00    +0.135 A 
ATOM     10  C   UNL A   1       0.030  -3.670 -48.891  0.00  0.00    +0.091 A 
ATOM     11  C   UNL A   1       1.176  -3.205 -49.526  0.00  0.00    +0.124 A 
ENDROOT
BRANCH   5  12
ATOM     12  C   UNL A   1      -3.158  -4.444 -54.203  0.00  0.00    -0.011 A 
ATOM     13  C   UNL A   1      -3.353  -5.650 -54.872  0.00  0.00    +0.012 A 
ATOM     14  C   UNL A   1      -4.448  -5.811 -55.694  0.00  0.00    +0.046 A 
ATOM     15  C   UNL A   1      -5.350  -4.770 -55.864  0.00  0.00    +0.117 A 
ATOM     16  C   UNL A   1      -5.160  -3.568 -55.198  0.00  0.00    +0.046 A 
ATOM     17  C   UNL A   1      -4.069  -3.403 -54.370  0.00  0.00    +0.012 A 
BRANCH  15  18
ATOM     18  O   UNL A   1      -6.427  -4.930 -56.678  0.00  0.00    -0.507 OA
ATOM     19  H   UNL A   1      -6.588  -4.075 -57.099  0.00  0.00    +0.292 HD
ENDBRANCH  15  18
ENDBRANCH   5  12
BRANCH   9  20
ATOM     20  O   UNL A   1      -2.159  -4.585 -49.020  0.00  0.00    -0.506 OA
ATOM     21  H   UNL A   1      -2.907  -4.333 -49.576  0.00  0.00    +0.292 HD
ENDBRANCH   9  20
BRANCH  11  22
ATOM     22  O   UNL A   1       2.218  -2.752 -48.784  0.00  0.00    -0.507 OA
ATOM     23  H   UNL A   1       2.094  -1.799 -48.680  0.00  0.00    +0.292 HD
ENDBRANCH  11  22
TORSDOF 4
ENDMDL
MODEL 16
REMARK VINA RESULT:      -6.3      2.774      6.042
REMARK  Name = GEN
REMARK  4 active torsions:
REMARK  status: ('A' for Active; 'I' for Inactive)
REMARK    1  A    between atoms: C_2  and  O_3
REMARK    2  A    between atoms: C_5  and  O_6
REMARK    3  A    between atoms: C_10  and  C_14
REMARK    4  A    between atoms: C_17  and  O_18
REMARK                            x       y       z     vdW  Elec       q    Type
REMARK                         _______ _______ _______ _____ _____    ______ ____
ROOT
ATOM      1  C   UNL A   1       1.385  -3.369 -50.343  0.00  0.00    +0.092 A 
ATOM      2  C   UNL A   1       0.203  -2.948 -50.933  0.00  0.00    +0.145 A 
ATOM      3  O   UNL A   1      -0.605  -2.065 -50.310  0.00  0.00    -0.462 OA
ATOM      4  C   UNL A   1      -1.868  -1.849 -50.692  0.00  0.00    +0.208 A 
ATOM      5  C   UNL A   1      -2.340  -2.272 -51.894  0.00  0.00    +0.064 A 
ATOM      6  C   UNL A   1      -1.423  -3.002 -52.788  0.00  0.00    +0.204 A 
ATOM      7  O   UNL A   1      -1.701  -3.220 -53.955  0.00  0.00    -0.286 OA
ATOM      8  C   UNL A   1      -0.153  -3.450 -52.197  0.00  0.00    +0.106 A 
ATOM      9  C   UNL A   1       0.684  -4.357 -52.859  0.00  0.00    +0.135 A 
ATOM     10  C   UNL A   1       1.859  -4.762 -52.255  0.00  0.00    +0.091 A 
ATOM     11  C   UNL A   1       2.206  -4.270 -51.002  0.00  0.00    +0.124 A 
ENDROOT
BRANCH   5  12
ATOM     12  C   UNL A   1      -3.743  -2.008 -52.296  0.00  0.00    -0.011 A 
ATOM     13  C   UNL A   1      -4.025  -1.028 -53.245  0.00  0.00    +0.012 A 
ATOM     14  C   UNL A   1      -5.330  -0.789 -53.621  0.00  0.00    +0.046 A 
ATOM     15  C   UNL A   1      -6.363  -1.516 -53.048  0.00  0.00    +0.117 A 
ATOM     16  C   UNL A   1      -6.086  -2.494 -52.104  0.00  0.00    +0.046 A 
ATOM     17  C   UNL A   1      -4.783  -2.742 -51.727  0.00  0.00    +0.012 A 
BRANCH  15  18
ATOM     18  O   UNL A   1      -7.649  -1.276 -53.417  0.00  0.00    -0.507 OA
ATOM     19  H   UNL A   1      -7.673  -1.306 -54.382  0.00  0.00    +0.292 HD
ENDBRANCH  15  18
ENDBRANCH   5  12
BRANCH   9  20
ATOM     20  O   UNL A   1       0.343  -4.834 -54.083  0.00  0.00    -0.506 OA
ATOM     21  H   UNL A   1       0.720  -5.721 -54.152  0.00  0.00    +0.292 HD
ENDBRANCH   9  20
BRANCH  11  22
ATOM     22  O   UNL A   1       3.361  -4.679 -50.416  0.00  0.00    -0.507 OA
ATOM     23  H   UNL A   1       3.503  -4.106 -49.650  0.00  0.00    +0.292 HD
ENDBRANCH  11  22
TORSDOF 4
ENDMDL
MODEL 17
REMARK VINA RESULT:      -6.3      2.260      6.974
REMARK  Name = GEN
REMARK  4 active torsions:
REMARK  status: ('A' for Active; 'I' for Inactive)
REMARK    1  A    between atoms: C_2  and  O_3
REMARK    2  A    between atoms: C_5  and  O_6
REMARK    3  A    between atoms: C_10  and  C_14
REMARK    4  A    between atoms: C_17  and  O_18
REMARK                            x       y       z     vdW  Elec       q    Type
REMARK                         _______ _______ _______ _____ _____    ______ ____
ROOT
ATOM      1  C   UNL A   1       0.103  -3.121 -50.647  0.00  0.00    +0.092 A 
ATOM      2  C   UNL A   1      -0.784  -3.073 -51.711  0.00  0.00    +0.145 A 
ATOM      3  O   UNL A   1      -2.007  -2.520 -51.568  0.00  0.00    -0.462 OA
ATOM      4  C   UNL A   1      -2.988  -2.701 -52.458  0.00  0.00    +0.208 A 
ATOM      5  C   UNL A   1      -2.753  -3.199 -53.700  0.00  0.00    +0.064 A 
ATOM      6  C   UNL A   1      -1.369  -3.561 -54.058  0.00  0.00    +0.204 A 
ATOM      7  O   UNL A   1      -1.046  -3.806 -55.208  0.00  0.00    -0.286 OA
ATOM      8  C   UNL A   1      -0.399  -3.607 -52.953  0.00  0.00    +0.106 A 
ATOM      9  C   UNL A   1       0.872  -4.172 -53.117  0.00  0.00    +0.135 A 
ATOM     10  C   UNL A   1       1.742  -4.207 -52.044  0.00  0.00    +0.091 A 
ATOM     11  C   UNL A   1       1.358  -3.685 -50.814  0.00  0.00    +0.124 A 
ENDROOT
BRANCH   5  12
ATOM     12  C   UNL A   1      -3.860  -3.378 -54.670  0.00  0.00    -0.011 A 
ATOM     13  C   UNL A   1      -4.218  -2.335 -55.521  0.00  0.00    +0.012 A 
ATOM     14  C   UNL A   1      -5.244  -2.506 -56.426  0.00  0.00    +0.046 A 
ATOM     15  C   UNL A   1      -5.927  -3.713 -56.484  0.00  0.00    +0.117 A 
ATOM     16  C   UNL A   1      -5.572  -4.755 -55.639  0.00  0.00    +0.046 A 
ATOM     17  C   UNL A   1      -4.544  -4.591 -54.735  0.00  0.00    +0.012 A 
BRANCH  15  18
ATOM     18  O   UNL A   1      -6.941  -3.878 -57.374  0.00  0.00    -0.507 OA
ATOM     19  H   UNL A   1      -7.764  -3.843 -56.869  0.00  0.00    +0.292 HD
ENDBRANCH  15  18
ENDBRANCH   5  12
BRANCH   9  20
ATOM     20  O   UNL A   1       1.245  -4.679 -54.319  0.00  0.00    -0.506 OA
ATOM     21  H   UNL A   1       1.964  -5.302 -54.148  0.00  0.00    +0.292 HD
ENDBRANCH   9  20
BRANCH  11  22
ATOM     22  O   UNL A   1       2.219  -3.730 -49.766  0.00  0.00    -0.507 OA
ATOM     23  H   UNL A   1       2.663  -2.871 -49.732  0.00  0.00    +0.292 HD
ENDBRANCH  11  22
TORSDOF 4
ENDMDL
MODEL 18
REMARK VINA RESULT:      -6.2      2.167      3.032
REMARK  Name = GEN
REMARK  4 active torsions:
REMARK  status: ('A' for Active; 'I' for Inactive)
REMARK    1  A    between atoms: C_2  and  O_3
REMARK    2  A    between atoms: C_5  and  O_6
REMARK    3  A    between atoms: C_10  and  C_14
REMARK    4  A    between atoms: C_17  and  O_18
REMARK                            x       y       z     vdW  Elec       q    Type
REMARK                         _______ _______ _______ _____ _____    ______ ____
ROOT
ATOM      1  C   UNL A   1      -5.307  -4.466 -54.615  0.00  0.00    +0.092 A 
ATOM      2  C   UNL A   1      -4.011  -4.464 -54.123  0.00  0.00    +0.145 A 
ATOM      3  O   UNL A   1      -3.642  -5.315 -53.142  0.00  0.00    -0.462 OA
ATOM      4  C   UNL A   1      -2.510  -5.164 -52.445  0.00  0.00    +0.208 A 
ATOM      5  C   UNL A   1      -1.516  -4.335 -52.855  0.00  0.00    +0.064 A 
ATOM      6  C   UNL A   1      -1.710  -3.571 -54.101  0.00  0.00    +0.204 A 
ATOM      7  O   UNL A   1      -0.792  -2.981 -54.643  0.00  0.00    -0.286 OA
ATOM      8  C   UNL A   1      -3.072  -3.564 -54.658  0.00  0.00    +0.106 A 
ATOM      9  C   UNL A   1      -3.440  -2.686 -55.684  0.00  0.00    +0.135 A 
ATOM     10  C   UNL A   1      -4.736  -2.705 -56.163  0.00  0.00    +0.091 A 
ATOM     11  C   UNL A   1      -5.665  -3.591 -55.628  0.00  0.00    +0.124 A 
ENDROOT
BRANCH   5  12
ATOM     12  C   UNL A   1      -0.267  -4.196 -52.066  0.00  0.00    -0.011 A 
ATOM     13  C   UNL A   1      -0.303  -3.622 -50.798  0.00  0.00    +0.012 A 
ATOM     14  C   UNL A   1       0.859  -3.500 -50.065  0.00  0.00    +0.046 A 
ATOM     15  C   UNL A   1       2.065  -3.939 -50.594  0.00  0.00    +0.117 A 
ATOM     16  C   UNL A   1       2.103  -4.512 -51.856  0.00  0.00    +0.046 A 
ATOM     17  C   UNL A   1       0.944  -4.642 -52.592  0.00  0.00    +0.012 A 
BRANCH  15  18
ATOM     18  O   UNL A   1       3.209  -3.814 -49.871  0.00  0.00    -0.507 OA
ATOM     19  H   UNL A   1       2.977  -3.343 -49.060  0.00  0.00    +0.292 HD
ENDBRANCH  15  18
ENDBRANCH   5  12
BRANCH   9  20
ATOM     20  O   UNL A   1      -2.530  -1.824 -56.205  0.00  0.00    -0.506 OA
ATOM     21  H   UNL A   1      -2.219  -1.271 -55.477  0.00  0.00    +0.292 HD
ENDBRANCH   9  20
BRANCH  11  22
ATOM     22  O   UNL A   1      -6.937  -3.597 -56.102  0.00  0.00    -0.507 OA
ATOM     23  H   UNL A   1      -7.037  -4.406 -56.623  0.00  0.00    +0.292 HD
ENDBRANCH  11  22
TORSDOF 4
ENDMDL
MODEL 19
REMARK VINA RESULT:      -6.2      3.468      6.816
REMARK  Name = GEN
REMARK  4 active torsions:
REMARK  status: ('A' for Active; 'I' for Inactive)
REMARK    1  A    between atoms: C_2  and  O_3
REMARK    2  A    between atoms: C_5  and  O_6
REMARK    3  A    between atoms: C_10  and  C_14
REMARK    4  A    between atoms: C_17  and  O_18
REMARK                            x       y       z     vdW  Elec       q    Type
REMARK                         _______ _______ _______ _____ _____    ______ ____
ROOT
ATOM      1  C   UNL A   1      -0.266  -3.706 -50.975  0.00  0.00    +0.092 A 
ATOM      2  C   UNL A   1      -1.303  -2.965 -51.522  0.00  0.00    +0.145 A 
ATOM      3  O   UNL A   1      -1.944  -3.385 -52.632  0.00  0.00    -0.462 OA
ATOM      4  C   UNL A   1      -2.740  -2.587 -53.351  0.00  0.00    +0.208 A 
ATOM      5  C   UNL A   1      -3.195  -1.400 -52.871  0.00  0.00    +0.064 A 
ATOM      6  C   UNL A   1      -2.778  -0.986 -51.519  0.00  0.00    +0.204 A 
ATOM      7  O   UNL A   1      -3.309  -0.054 -50.939  0.00  0.00    -0.286 OA
ATOM      8  C   UNL A   1      -1.689  -1.762 -50.905  0.00  0.00    +0.106 A 
ATOM      9  C   UNL A   1      -1.039  -1.321 -49.745  0.00  0.00    +0.135 A 
ATOM     10  C   UNL A   1      -0.010  -2.076 -49.215  0.00  0.00    +0.091 A 
ATOM     11  C   UNL A   1       0.375  -3.263 -49.830  0.00  0.00    +0.124 A 
ENDROOT
BRANCH   5  12
ATOM     12  C   UNL A   1      -4.086  -0.540 -53.687  0.00  0.00    -0.011 A 
ATOM     13  C   UNL A   1      -5.450  -0.812 -53.752  0.00  0.00    +0.012 A 
ATOM     14  C   UNL A   1      -6.277  -0.007 -54.507  0.00  0.00    +0.046 A 
ATOM     15  C   UNL A   1      -5.750   1.067 -55.211  0.00  0.00    +0.117 A 
ATOM     16  C   UNL A   1      -4.392   1.341 -55.147  0.00  0.00    +0.046 A 
ATOM     17  C   UNL A   1      -3.560   0.543 -54.390  0.00  0.00    +0.012 A 
BRANCH  15  18
ATOM     18  O   UNL A   1      -6.566   1.856 -55.958  0.00  0.00    -0.507 OA
ATOM     19  H   UNL A   1      -7.138   2.331 -55.340  0.00  0.00    +0.292 HD
ENDBRANCH  15  18
ENDBRANCH   5  12
BRANCH   9  20
ATOM     20  O   UNL A   1      -1.419  -0.164 -49.146  0.00  0.00    -0.506 OA
ATOM     21  H   UNL A   1      -0.648   0.169 -48.669  0.00  0.00    +0.292 HD
ENDBRANCH   9  20
BRANCH  11  22
ATOM     22  O   UNL A   1       1.391  -3.993 -49.304  0.00  0.00    -0.507 OA
ATOM     23  H   UNL A   1       1.359  -3.866 -48.346  0.00  0.00    +0.292 HD
ENDBRANCH  11  22
TORSDOF 4
ENDMDL
MODEL 20
REMARK VINA RESULT:      -5.9      2.366      3.382
REMARK  Name = GEN
REMARK  4 active torsions:
REMARK  status: ('A' for Active; 'I' for Inactive)
REMARK    1  A    between atoms: C_2  and  O_3
REMARK    2  A    between atoms: C_5  and  O_6
REMARK    3  A    between atoms: C_10  and  C_14
REMARK    4  A    between atoms: C_17  and  O_18
REMARK                            x       y       z     vdW  Elec       q    Type
REMARK                         _______ _______ _______ _____ _____    ______ ____
ROOT
ATOM      1  C   UNL A   1      -5.016  -4.464 -54.527  0.00  0.00    +0.092 A 
ATOM      2  C   UNL A   1      -3.801  -4.130 -53.949  0.00  0.00    +0.145 A 
ATOM      3  O   UNL A   1      -2.653  -4.700 -54.371  0.00  0.00    -0.462 OA
ATOM      4  C   UNL A   1      -1.515  -4.633 -53.673  0.00  0.00    +0.208 A 
ATOM      5  C   UNL A   1      -1.347  -3.755 -52.651  0.00  0.00    +0.064 A 
ATOM      6  C   UNL A   1      -2.469  -2.865 -52.301  0.00  0.00    +0.204 A 
ATOM      7  O   UNL A   1      -2.326  -1.913 -51.552  0.00  0.00    -0.286 OA
ATOM      8  C   UNL A   1      -3.770  -3.183 -52.910  0.00  0.00    +0.106 A 
ATOM      9  C   UNL A   1      -4.952  -2.575 -52.471  0.00  0.00    +0.135 A 
ATOM     10  C   UNL A   1      -6.153  -2.920 -53.063  0.00  0.00    +0.091 A 
ATOM     11  C   UNL A   1      -6.183  -3.862 -54.085  0.00  0.00    +0.124 A 
ENDROOT
BRANCH   5  12
ATOM     12  C   UNL A   1      -0.068  -3.695 -51.901  0.00  0.00    -0.011 A 
ATOM     13  C   UNL A   1       1.136  -3.550 -52.586  0.00  0.00    +0.012 A 
ATOM     14  C   UNL A   1       2.323  -3.489 -51.886  0.00  0.00    +0.046 A 
ATOM     15  C   UNL A   1       2.319  -3.583 -50.501  0.00  0.00    +0.117 A 
ATOM     16  C   UNL A   1       1.122  -3.727 -49.816  0.00  0.00    +0.046 A 
ATOM     17  C   UNL A   1      -0.069  -3.783 -50.510  0.00  0.00    +0.012 A 
BRANCH  15  18
ATOM     18  O   UNL A   1       3.490  -3.527 -49.814  0.00  0.00    -0.507 OA
ATOM     19  H   UNL A   1       3.775  -4.440 -49.673  0.00  0.00    +0.292 HD
ENDBRANCH  15  18
ENDBRANCH   5  12
BRANCH   9  20
ATOM     20  O   UNL A   1      -4.920  -1.655 -51.474  0.00  0.00    -0.506 OA
ATOM     21  H   UNL A   1      -5.070  -0.793 -51.885  0.00  0.00    +0.292 HD
ENDBRANCH   9  20
BRANCH  11  22
ATOM     22  O   UNL A   1      -7.368  -4.197 -54.655  0.00  0.00    -0.507 OA
ATOM     23  H   UNL A   1      -7.552  -3.529 -55.330  0.00  0.00    +0.292 HD
ENDBRANCH  11  22
TORSDOF 4
ENDMDL
